

adapt/                  file/                   report/
define/                 mesh/                   solve/
display/                parallel/               surface/
exit                    plot/                   views/

> (cx-gui-do cx-set-list-tree-selections "NavigationPane*List_Tree1" (list "Setup|Models|Windkessel (2)"))
(cx-gui-do cx-set-list-tree-selections "NavigationPane*List_Tree1" (list "Setup|Models|Windkessel (2)"))
(cx-gui-do cx-activate-item "NavigationPane*List_Tree1")
(cx-gui-do cx-set-real-entry-list "Windkessel Model*Table3(List of Windkessel models)*RealEntry13" '( 1e+009))
(cx-gui-do cx-set-real-entry-list "Windkessel Model*Table3(List of Windkessel models)*RealEntry23" '( 1.4e+009))
(cx-gui-do cx-activate-item "Windkessel Model*PanelButtons*PushButton6(Initialize)")
Windkessel Data Refreshed...
(cx-gui-do cx-activate-item "Windkessel Model*PanelButtons*PushButton6(Initialize)")
Windkessel Data Refreshed...
(cx-gui-do cx-activate-item "Windkessel Model*PanelButtons*PushButton1(OK)")
(cx-gui-do cx-set-list-tree-selections "NavigationPane*List_Tree1" (list "Setup|Models|Windkessel (2)"))
(cx-gui-do cx-set-list-tree-selections "NavigationPane*List_Tree1" (list "Setup|Models|Windkessel (2)"))
(cx-gui-do cx-activate-item "NavigationPane*List_Tree1")
(cx-gui-do cx-activate-item "Windkessel Model*PanelButtons*PushButton6(Initialize)")
Windkessel Data Refreshed...
(cx-gui-do cx-activate-item "Windkessel Model*PanelButtons*PushButton2(Cancel)")
(cx-gui-do cx-set-list-tree-selections "NavigationPane*List_Tree1" (list "Solution|Solution Initialization"))
(cx-gui-do cx-activate-item "Solution Initialization*Table1*ButtonBox8*PushButton1(Initialize)")
(cx-gui-do cx-set-list-tree-selections "NavigationPane*List_Tree1" (list "Solution|Run Calculation"))
(cx-gui-do cx-activate-item "Run Calculation*Table1*PushButton22(Calculate)")

  iter  continuity  x-velocity  y-velocity  z-velocity  pressure-i  pressure-o  pressure-o  flow-inlet  flow-outle  flow-outle     time/iter
Windkessel 1 :	Q = 5.656029e-07 m3 and P = 5.656029e+02 Pa
	(Pout = 0.000000e+00 Pa,Pc = 0.000000e+00 Pa)
Windkessel 2 :	Q = 7.255282e-08 m3 and P = 1.015739e+02 Pa
	(Pout = 0.000000e+00 Pa,Pc = 0.000000e+00 Pa)
     1  1.0000e+00  0.0000e+00  0.0000e+00  1.6040e-04  6.2473e+03  0.0000e+00 -1.0869e-05  1.0560e-03 -5.9728e-04 -7.6616e-05  0:05:52  999

 reversed flow in 22 faces on pressure-outlet 8. 
Windkessel 1 :	Q = 6.582133e-07 m3 and P = 6.582133e+02 Pa
	(Pout = 0.000000e+00 Pa,Pc = 0.000000e+00 Pa)
Windkessel 2 :	Q = 3.764937e-07 m3 and P = 5.270912e+02 Pa
	(Pout = 0.000000e+00 Pa,Pc = 0.000000e+00 Pa)
     2  1.0000e+00  8.9440e-02  7.9039e-02  1.5551e-01  5.7422e+03  5.6560e+02  1.0158e+02  1.0560e-03 -6.9507e-04 -3.9758e-04  0:04:41  998
Windkessel 1 :	Q = 8.681684e-07 m3 and P = 8.681684e+02 Pa
	(Pout = 0.000000e+00 Pa,Pc = 0.000000e+00 Pa)
Windkessel 2 :	Q = 5.593521e-07 m3 and P = 7.830929e+02 Pa
	(Pout = 0.000000e+00 Pa,Pc = 0.000000e+00 Pa)
     3  7.3805e-01  3.2392e-02  2.4517e-02  7.8907e-02  5.8673e+03  6.2638e+02  4.7887e+02  1.0560e-03 -9.1679e-04 -5.9068e-04  0:03:45  997

 reversed flow in 93 faces on pressure-outlet 7. 

 reversed flow in 6 faces on pressure-outlet 8. 
Windkessel 1 :	Q = 6.180622e-07 m3 and P = 6.180622e+02 Pa
	(Pout = 0.000000e+00 Pa,Pc = 0.000000e+00 Pa)
Windkessel 2 :	Q = 5.462804e-07 m3 and P = 7.647926e+02 Pa
	(Pout = 0.000000e+00 Pa,Pc = 0.000000e+00 Pa)
     4  5.5358e-01  2.2726e-02  1.2742e-02  6.0864e-02  5.7044e+03  7.9763e+02  7.2309e+02  1.0560e-03 -6.5267e-04 -5.7687e-04  0:06:19  996

 reversed flow in 66 faces on pressure-outlet 7. 

 reversed flow in 70 faces on pressure-outlet 8. 
Windkessel 1 :	Q = 6.271965e-07 m3 and P = 6.271965e+02 Pa
	(Pout = 0.000000e+00 Pa,Pc = 0.000000e+00 Pa)
Windkessel 2 :	Q = 6.590335e-07 m3 and P = 9.226469e+02 Pa
	(Pout = 0.000000e+00 Pa,Pc = 0.000000e+00 Pa)
     5  5.1975e-01  1.9387e-02  1.1272e-02  4.2123e-02  5.8625e+03  6.7137e+02  7.5634e+02  1.0560e-03 -6.6232e-04 -6.9594e-04  0:05:03  995

 reversed flow in 58 faces on pressure-outlet 7. 

 reversed flow in 68 faces on pressure-outlet 8. 
Windkessel 1 :	Q = 5.610961e-07 m3 and P = 5.610961e+02 Pa
	(Pout = 0.000000e+00 Pa,Pc = 0.000000e+00 Pa)
Windkessel 2 :	Q = 6.911030e-07 m3 and P = 9.675442e+02 Pa
	(Pout = 0.000000e+00 Pa,Pc = 0.000000e+00 Pa)
     6  3.0033e-01  1.3331e-02  7.7350e-03  2.9365e-02  4.6091e+03  6.5960e+02  8.9225e+02  1.0560e-03 -5.9252e-04 -7.2980e-04  0:04:02  994

 reversed flow in 62 faces on pressure-outlet 7. 

 reversed flow in 39 faces on pressure-outlet 8. 
Windkessel 1 :	Q = 9.296422e-07 m3 and P = 9.296422e+02 Pa
	(Pout = 0.000000e+00 Pa,Pc = 0.000000e+00 Pa)
Windkessel 2 :	Q = 1.943114e-07 m3 and P = 2.720360e+02 Pa
	(Pout = 0.000000e+00 Pa,Pc = 0.000000e+00 Pa)
     7  3.2346e-01  1.1756e-02  7.6255e-03  2.7143e-02  4.0586e+03  5.9034e+02  9.3958e+02  1.0560e-03 -9.8170e-04 -2.0519e-04  0:03:13  993

 reversed flow in 46 faces on pressure-outlet 7. 

 reversed flow in 46 faces on pressure-outlet 8. 
Windkessel 1 :	Q = 5.823243e-07 m3 and P = 5.823243e+02 Pa
	(Pout = 0.000000e+00 Pa,Pc = 0.000000e+00 Pa)
Windkessel 2 :	Q = 4.532156e-07 m3 and P = 6.345019e+02 Pa
	(Pout = 0.000000e+00 Pa,Pc = 0.000000e+00 Pa)
     8  2.9907e-01  1.0970e-02  6.9873e-03  2.3330e-02 -2.8300e+02  8.7635e+02  3.6662e+02  1.0560e-03 -6.1493e-04 -4.7860e-04  0:02:35  992

 reversed flow in 49 faces on pressure-outlet 7. 

 reversed flow in 20 faces on pressure-outlet 8. 
Windkessel 1 :	Q = 4.421790e-07 m3 and P = 4.421790e+02 Pa
	(Pout = 0.000000e+00 Pa,Pc = 0.000000e+00 Pa)
Windkessel 2 :	Q = 3.850498e-07 m3 and P = 5.390697e+02 Pa
	(Pout = 0.000000e+00 Pa,Pc = 0.000000e+00 Pa)
     9  5.6581e-01  1.6935e-02  1.0447e-02  3.3971e-02 -3.2253e+02  6.2279e+02  6.3003e+02  1.0560e-03 -4.6694e-04 -4.0661e-04  0:05:22  991

 reversed flow in 31 faces on pressure-outlet 7. 

 reversed flow in 44 faces on pressure-outlet 8. 
Windkessel 1 :	Q = 5.348536e-07 m3 and P = 5.348536e+02 Pa
	(Pout = 0.000000e+00 Pa,Pc = 0.000000e+00 Pa)
Windkessel 2 :	Q = 2.945048e-07 m3 and P = 4.123067e+02 Pa
	(Pout = 0.000000e+00 Pa,Pc = 0.000000e+00 Pa)
    10  2.9400e-01  9.8023e-03  6.8397e-03  2.5749e-02 -3.1531e+02  4.9137e+02  5.6139e+02  1.0560e-03 -5.6481e-04 -3.1100e-04  0:04:17  990

 reversed flow in 49 faces on pressure-outlet 7. 

 reversed flow in 41 faces on pressure-outlet 8. 
Windkessel 1 :	Q = 4.213274e-07 m3 and P = 4.213274e+02 Pa
	(Pout = 0.000000e+00 Pa,Pc = 0.000000e+00 Pa)
Windkessel 2 :	Q = 4.357338e-07 m3 and P = 6.100273e+02 Pa
	(Pout = 0.000000e+00 Pa,Pc = 0.000000e+00 Pa)
    11  2.5123e-01  8.8081e-03  6.2705e-03  2.1608e-02 -3.4297e+02  5.4948e+02  4.5295e+02  1.0560e-03 -4.4492e-04 -4.6013e-04  0:03:25  989

 reversed flow in 56 faces on pressure-outlet 7. 

 reversed flow in 39 faces on pressure-outlet 8. 
  iter  continuity  x-velocity  y-velocity  z-velocity  pressure-i  pressure-o  pressure-o  flow-inlet  flow-outle  flow-outle     time/iter
Windkessel 1 :	Q = 4.950442e-07 m3 and P = 4.950442e+02 Pa
	(Pout = 0.000000e+00 Pa,Pc = 0.000000e+00 Pa)
Windkessel 2 :	Q = 4.142005e-07 m3 and P = 5.798807e+02 Pa
	(Pout = 0.000000e+00 Pa,Pc = 0.000000e+00 Pa)
    12  1.7766e-01  8.7722e-03  5.2493e-03  1.9238e-02 -3.3019e+02  4.5535e+02  5.9642e+02  1.0560e-03 -5.2277e-04 -4.3740e-04  0:02:44  988

 reversed flow in 53 faces on pressure-outlet 7. 

 reversed flow in 43 faces on pressure-outlet 8. 
Windkessel 1 :	Q = 4.995028e-07 m3 and P = 4.995028e+02 Pa
	(Pout = 0.000000e+00 Pa,Pc = 0.000000e+00 Pa)
Windkessel 2 :	Q = 3.716297e-07 m3 and P = 5.202816e+02 Pa
	(Pout = 0.000000e+00 Pa,Pc = 0.000000e+00 Pa)
    13  1.6255e-01  7.6955e-03  4.9860e-03  2.0021e-02 -2.2102e+02  5.0324e+02  5.8176e+02  1.0560e-03 -5.2747e-04 -3.9244e-04  0:02:11  987

 reversed flow in 59 faces on pressure-outlet 7. 

 reversed flow in 47 faces on pressure-outlet 8. 
Windkessel 1 :	Q = 5.387154e-07 m3 and P = 5.387154e+02 Pa
	(Pout = 0.000000e+00 Pa,Pc = 0.000000e+00 Pa)
Windkessel 2 :	Q = 4.306625e-07 m3 and P = 6.029275e+02 Pa
	(Pout = 0.000000e+00 Pa,Pc = 0.000000e+00 Pa)
    14  1.0492e-01  6.7062e-03  4.4636e-03  1.6048e-02  1.9238e+03  5.0589e+02  5.3717e+02  1.0560e-03 -5.6888e-04 -4.5478e-04  0:05:02  986

 reversed flow in 55 faces on pressure-outlet 7. 

 reversed flow in 44 faces on pressure-outlet 8. 
Windkessel 1 :	Q = 5.942949e-07 m3 and P = 5.942949e+02 Pa
	(Pout = 0.000000e+00 Pa,Pc = 0.000000e+00 Pa)
Windkessel 2 :	Q = 4.659177e-07 m3 and P = 6.522848e+02 Pa
	(Pout = 0.000000e+00 Pa,Pc = 0.000000e+00 Pa)
    15  1.7019e-01  7.9731e-03  6.6377e-03  1.3121e-02  1.9087e+03  5.3593e+02  5.9512e+02  1.0560e-03 -6.2758e-04 -4.9201e-04  0:04:01  985

 reversed flow in 55 faces on pressure-outlet 7. 

 reversed flow in 46 faces on pressure-outlet 8. 
Windkessel 1 :	Q = 5.797147e-07 m3 and P = 5.797147e+02 Pa
	(Pout = 0.000000e+00 Pa,Pc = 0.000000e+00 Pa)
Windkessel 2 :	Q = 4.922301e-07 m3 and P = 6.891221e+02 Pa
	(Pout = 0.000000e+00 Pa,Pc = 0.000000e+00 Pa)
    16  1.0738e-01  5.3581e-03  3.7147e-03  1.2036e-02  1.9293e+03  5.8140e+02  6.3569e+02  1.0560e-03 -6.1218e-04 -5.1979e-04  0:03:13  984

 reversed flow in 53 faces on pressure-outlet 7. 

 reversed flow in 46 faces on pressure-outlet 8. 
Windkessel 1 :	Q = 5.919121e-07 m3 and P = 5.919121e+02 Pa
	(Pout = 0.000000e+00 Pa,Pc = 0.000000e+00 Pa)
Windkessel 2 :	Q = 4.130662e-07 m3 and P = 5.782927e+02 Pa
	(Pout = 0.000000e+00 Pa,Pc = 0.000000e+00 Pa)
    17  1.0756e-01  4.4005e-03  3.1989e-03  9.4055e-03  1.9365e+03  5.7736e+02  6.7178e+02  1.0560e-03 -6.2506e-04 -4.3620e-04  0:02:34  983

 reversed flow in 37 faces on pressure-outlet 7. 

 reversed flow in 41 faces on pressure-outlet 8. 
Windkessel 1 :	Q = 6.028403e-07 m3 and P = 6.028403e+02 Pa
	(Pout = 0.000000e+00 Pa,Pc = 0.000000e+00 Pa)
Windkessel 2 :	Q = 4.385528e-07 m3 and P = 6.139739e+02 Pa
	(Pout = 0.000000e+00 Pa,Pc = 0.000000e+00 Pa)
    18  9.6140e-02  3.8545e-03  2.6765e-03  7.5946e-03  1.9394e+03  5.8863e+02  5.9033e+02  1.0560e-03 -6.3660e-04 -4.6311e-04  0:02:03  982

 reversed flow in 38 faces on pressure-outlet 7. 

 reversed flow in 31 faces on pressure-outlet 8. 
Windkessel 1 :	Q = 5.617597e-07 m3 and P = 5.617597e+02 Pa
	(Pout = 0.000000e+00 Pa,Pc = 0.000000e+00 Pa)
Windkessel 2 :	Q = 4.419648e-07 m3 and P = 6.187507e+02 Pa
	(Pout = 0.000000e+00 Pa,Pc = 0.000000e+00 Pa)
    19  9.1398e-02  3.6566e-03  2.5843e-03  7.1692e-03  1.9216e+03  5.9884e+02  6.1407e+02  1.0560e-03 -5.9322e-04 -4.6671e-04  0:04:55  981

 reversed flow in 33 faces on pressure-outlet 7. 

 reversed flow in 35 faces on pressure-outlet 8. 
Windkessel 1 :	Q = 5.552942e-07 m3 and P = 5.552942e+02 Pa
	(Pout = 0.000000e+00 Pa,Pc = 0.000000e+00 Pa)
Windkessel 2 :	Q = 4.278463e-07 m3 and P = 5.989849e+02 Pa
	(Pout = 0.000000e+00 Pa,Pc = 0.000000e+00 Pa)
    20  6.3880e-02  2.6970e-03  2.1166e-03  5.6978e-03  1.9223e+03  5.6578e+02  6.1828e+02  1.0560e-03 -5.8639e-04 -4.5181e-04  0:03:56  980

 reversed flow in 30 faces on pressure-outlet 7. 

 reversed flow in 36 faces on pressure-outlet 8. 
Windkessel 1 :	Q = 5.554695e-07 m3 and P = 5.554695e+02 Pa
	(Pout = 0.000000e+00 Pa,Pc = 0.000000e+00 Pa)
Windkessel 2 :	Q = 4.207155e-07 m3 and P = 5.890018e+02 Pa
	(Pout = 0.000000e+00 Pa,Pc = 0.000000e+00 Pa)
    21  5.2336e-02  2.3609e-03  1.7885e-03  5.3553e-03  1.9128e+03  5.5890e+02  6.0285e+02  1.0560e-03 -5.8658e-04 -4.4428e-04  0:03:08  979

 reversed flow in 33 faces on pressure-outlet 7. 

 reversed flow in 37 faces on pressure-outlet 8. 
Windkessel 1 :	Q = 5.642341e-07 m3 and P = 5.642341e+02 Pa
	(Pout = 0.000000e+00 Pa,Pc = 0.000000e+00 Pa)
Windkessel 2 :	Q = 4.537210e-07 m3 and P = 6.352094e+02 Pa
	(Pout = 0.000000e+00 Pa,Pc = 0.000000e+00 Pa)
    22  4.4264e-02  2.2340e-03  1.6005e-03  5.0580e-03  1.9028e+03  5.5777e+02  5.9396e+02  1.0560e-03 -5.9583e-04 -4.7913e-04  0:02:30  978

 reversed flow in 32 faces on pressure-outlet 7. 

 reversed flow in 36 faces on pressure-outlet 8. 
  iter  continuity  x-velocity  y-velocity  z-velocity  pressure-i  pressure-o  pressure-o  flow-inlet  flow-outle  flow-outle     time/iter
Windkessel 1 :	Q = 5.998412e-07 m3 and P = 5.998412e+02 Pa
	(Pout = 0.000000e+00 Pa,Pc = 0.000000e+00 Pa)
Windkessel 2 :	Q = 4.451582e-07 m3 and P = 6.232215e+02 Pa
	(Pout = 0.000000e+00 Pa,Pc = 0.000000e+00 Pa)
    23  4.5419e-02  2.2726e-03  1.6068e-03  4.9534e-03  1.8903e+03  5.6464e+02  6.2932e+02  1.0560e-03 -6.3343e-04 -4.7009e-04  0:02:00  977

 reversed flow in 29 faces on pressure-outlet 7. 

 reversed flow in 35 faces on pressure-outlet 8. 
Windkessel 1 :	Q = 5.532302e-07 m3 and P = 5.532302e+02 Pa
	(Pout = 0.000000e+00 Pa,Pc = 0.000000e+00 Pa)
Windkessel 2 :	Q = 4.643662e-07 m3 and P = 6.501127e+02 Pa
	(Pout = 0.000000e+00 Pa,Pc = 0.000000e+00 Pa)
    24  4.1346e-02  2.1590e-03  1.3482e-03  4.9089e-03  1.5916e+03  5.9605e+02  6.2223e+02  1.0560e-03 -5.8421e-04 -4.9037e-04  0:01:36  976

 reversed flow in 29 faces on pressure-outlet 7. 

 reversed flow in 31 faces on pressure-outlet 8. 
Windkessel 1 :	Q = 5.636962e-07 m3 and P = 5.636962e+02 Pa
	(Pout = 0.000000e+00 Pa,Pc = 0.000000e+00 Pa)
Windkessel 2 :	Q = 4.575162e-07 m3 and P = 6.405227e+02 Pa
	(Pout = 0.000000e+00 Pa,Pc = 0.000000e+00 Pa)
    25  6.0488e-02  2.1980e-03  1.7086e-03  5.1486e-03  1.5904e+03  5.5514e+02  6.4458e+02  1.0560e-03 -5.9526e-04 -4.8314e-04  0:01:17  975

 reversed flow in 12 faces on pressure-outlet 7. 

 reversed flow in 30 faces on pressure-outlet 8. 
Windkessel 1 :	Q = 5.702234e-07 m3 and P = 5.702234e+02 Pa
	(Pout = 0.000000e+00 Pa,Pc = 0.000000e+00 Pa)
Windkessel 2 :	Q = 4.516440e-07 m3 and P = 6.323016e+02 Pa
	(Pout = 0.000000e+00 Pa,Pc = 0.000000e+00 Pa)
    26  5.2583e-02  1.9680e-03  1.3130e-03  4.6460e-03  1.5447e+03  5.6418e+02  6.3892e+02  1.0560e-03 -6.0216e-04 -4.7694e-04  0:04:16  974

 reversed flow in 12 faces on pressure-outlet 7. 

 reversed flow in 29 faces on pressure-outlet 8. 
Windkessel 1 :	Q = 5.677880e-07 m3 and P = 5.677880e+02 Pa
	(Pout = 0.000000e+00 Pa,Pc = 0.000000e+00 Pa)
Windkessel 2 :	Q = 4.482450e-07 m3 and P = 6.275430e+02 Pa
	(Pout = 0.000000e+00 Pa,Pc = 0.000000e+00 Pa)
    27  3.7511e-02  1.7955e-03  1.3377e-03  3.7700e-03  1.5327e+03  5.7011e+02  6.3268e+02  1.0560e-03 -5.9958e-04 -4.7335e-04  0:03:25  973

 reversed flow in 12 faces on pressure-outlet 7. 

 reversed flow in 27 faces on pressure-outlet 8. 
Windkessel 1 :	Q = 5.757308e-07 m3 and P = 5.757308e+02 Pa
	(Pout = 0.000000e+00 Pa,Pc = 0.000000e+00 Pa)
Windkessel 2 :	Q = 4.429362e-07 m3 and P = 6.201107e+02 Pa
	(Pout = 0.000000e+00 Pa,Pc = 0.000000e+00 Pa)
    28  3.1434e-02  1.6399e-03  1.1829e-03  3.7243e-03  1.5002e+03  5.6794e+02  6.2856e+02  1.0560e-03 -6.0797e-04 -4.6774e-04  0:02:44  972

 reversed flow in 13 faces on pressure-outlet 7. 

 reversed flow in 27 faces on pressure-outlet 8. 
Windkessel 1 :	Q = 5.750369e-07 m3 and P = 5.750369e+02 Pa
	(Pout = 0.000000e+00 Pa,Pc = 0.000000e+00 Pa)
Windkessel 2 :	Q = 4.335711e-07 m3 and P = 6.069995e+02 Pa
	(Pout = 0.000000e+00 Pa,Pc = 0.000000e+00 Pa)
    29  2.8059e-02  1.5940e-03  1.1189e-03  3.7182e-03  1.4582e+03  5.7526e+02  6.2203e+02  1.0560e-03 -6.0724e-04 -4.5785e-04  0:02:11  971

 reversed flow in 14 faces on pressure-outlet 7. 

 reversed flow in 27 faces on pressure-outlet 8. 
Windkessel 1 :	Q = 5.594186e-07 m3 and P = 5.594186e+02 Pa
	(Pout = 0.000000e+00 Pa,Pc = 0.000000e+00 Pa)
Windkessel 2 :	Q = 4.354331e-07 m3 and P = 6.096064e+02 Pa
	(Pout = 0.000000e+00 Pa,Pc = 0.000000e+00 Pa)
    30  3.1899e-02  1.6710e-03  1.1060e-03  3.9121e-03  1.4534e+03  5.7484e+02  6.1039e+02  1.0560e-03 -5.9075e-04 -4.5982e-04  0:01:44  970

 reversed flow in 14 faces on pressure-outlet 7. 

 reversed flow in 25 faces on pressure-outlet 8. 
Windkessel 1 :	Q = 5.652764e-07 m3 and P = 5.652764e+02 Pa
	(Pout = 0.000000e+00 Pa,Pc = 0.000000e+00 Pa)
Windkessel 2 :	Q = 4.398698e-07 m3 and P = 6.158177e+02 Pa
	(Pout = 0.000000e+00 Pa,Pc = 0.000000e+00 Pa)
    31  3.0310e-02  1.6432e-03  1.0378e-03  3.8606e-03  1.4516e+03  5.6072e+02  6.1140e+02  1.0560e-03 -5.9693e-04 -4.6450e-04  0:04:37  969

 reversed flow in 15 faces on pressure-outlet 7. 

 reversed flow in 24 faces on pressure-outlet 8. 
Windkessel 1 :	Q = 5.639009e-07 m3 and P = 5.639009e+02 Pa
	(Pout = 0.000000e+00 Pa,Pc = 0.000000e+00 Pa)
Windkessel 2 :	Q = 4.404688e-07 m3 and P = 6.166563e+02 Pa
	(Pout = 0.000000e+00 Pa,Pc = 0.000000e+00 Pa)
    32  3.1227e-02  1.5349e-03  9.9932e-04  3.8545e-03  1.4477e+03  5.6565e+02  6.1614e+02  1.0560e-03 -5.9548e-04 -4.6514e-04  0:03:42  968

 reversed flow in 15 faces on pressure-outlet 7. 

 reversed flow in 24 faces on pressure-outlet 8. 
Windkessel 1 :	Q = 5.635655e-07 m3 and P = 5.635655e+02 Pa
	(Pout = 0.000000e+00 Pa,Pc = 0.000000e+00 Pa)
Windkessel 2 :	Q = 4.313877e-07 m3 and P = 6.039428e+02 Pa
	(Pout = 0.000000e+00 Pa,Pc = 0.000000e+00 Pa)
    33  2.5154e-02  1.4897e-03  9.7032e-04  3.5420e-03  1.4592e+03  5.6432e+02  6.1678e+02  1.0560e-03 -5.9513e-04 -4.5555e-04  0:02:57  967

 reversed flow in 15 faces on pressure-outlet 7. 

 reversed flow in 25 faces on pressure-outlet 8. 
  iter  continuity  x-velocity  y-velocity  z-velocity  pressure-i  pressure-o  pressure-o  flow-inlet  flow-outle  flow-outle     time/iter
Windkessel 1 :	Q = 5.617436e-07 m3 and P = 5.617436e+02 Pa
	(Pout = 0.000000e+00 Pa,Pc = 0.000000e+00 Pa)
Windkessel 2 :	Q = 4.307320e-07 m3 and P = 6.030248e+02 Pa
	(Pout = 0.000000e+00 Pa,Pc = 0.000000e+00 Pa)
    34  2.5038e-02  1.4668e-03  9.5403e-04  3.4607e-03  1.4921e+03  5.6391e+02  6.0604e+02  1.0560e-03 -5.9320e-04 -4.5485e-04  0:02:22  966

 reversed flow in 15 faces on pressure-outlet 7. 

 reversed flow in 25 faces on pressure-outlet 8. 
Windkessel 1 :	Q = 5.594554e-07 m3 and P = 5.594554e+02 Pa
	(Pout = 0.000000e+00 Pa,Pc = 0.000000e+00 Pa)
Windkessel 2 :	Q = 4.260351e-07 m3 and P = 5.964491e+02 Pa
	(Pout = 0.000000e+00 Pa,Pc = 0.000000e+00 Pa)
    35  2.8566e-02  1.5296e-03  9.6095e-04  3.5679e-03  1.5051e+03  5.6217e+02  6.0461e+02  1.0560e-03 -5.9078e-04 -4.4989e-04  0:01:53  965

 reversed flow in 15 faces on pressure-outlet 7. 

 reversed flow in 24 faces on pressure-outlet 8. 
Windkessel 1 :	Q = 5.627292e-07 m3 and P = 5.627292e+02 Pa
	(Pout = 0.000000e+00 Pa,Pc = 0.000000e+00 Pa)
Windkessel 2 :	Q = 4.299897e-07 m3 and P = 6.019855e+02 Pa
	(Pout = 0.000000e+00 Pa,Pc = 0.000000e+00 Pa)
    36  2.8831e-02  1.4947e-03  9.7476e-04  3.4942e-03  1.5552e+03  5.5993e+02  5.9849e+02  1.0560e-03 -5.9424e-04 -4.5407e-04  0:04:43  964

 reversed flow in 15 faces on pressure-outlet 7. 

 reversed flow in 24 faces on pressure-outlet 8. 
Windkessel 1 :	Q = 5.589460e-07 m3 and P = 5.589460e+02 Pa
	(Pout = 0.000000e+00 Pa,Pc = 0.000000e+00 Pa)
Windkessel 2 :	Q = 4.294890e-07 m3 and P = 6.012846e+02 Pa
	(Pout = 0.000000e+00 Pa,Pc = 0.000000e+00 Pa)
    37  2.9486e-02  1.4993e-03  9.4047e-04  3.3685e-03  1.5705e+03  5.6282e+02  6.0262e+02  1.0560e-03 -5.9025e-04 -4.5354e-04  0:03:46  963

 reversed flow in 14 faces on pressure-outlet 7. 

 reversed flow in 24 faces on pressure-outlet 8. 
Windkessel 1 :	Q = 5.612423e-07 m3 and P = 5.612423e+02 Pa
	(Pout = 0.000000e+00 Pa,Pc = 0.000000e+00 Pa)
Windkessel 2 :	Q = 4.519124e-07 m3 and P = 6.326773e+02 Pa
	(Pout = 0.000000e+00 Pa,Pc = 0.000000e+00 Pa)
    38  2.4916e-02  1.3891e-03  9.0175e-04  3.1220e-03  1.5791e+03  5.5932e+02  6.0197e+02  1.0560e-03 -5.9267e-04 -4.7722e-04  0:03:01  962

 reversed flow in 14 faces on pressure-outlet 7. 

 reversed flow in 23 faces on pressure-outlet 8. 
Windkessel 1 :	Q = 5.605943e-07 m3 and P = 5.605943e+02 Pa
	(Pout = 0.000000e+00 Pa,Pc = 0.000000e+00 Pa)
Windkessel 2 :	Q = 4.336656e-07 m3 and P = 6.071318e+02 Pa
	(Pout = 0.000000e+00 Pa,Pc = 0.000000e+00 Pa)
    39  2.5002e-02  1.3465e-03  8.8803e-04  3.0742e-03  1.5836e+03  5.6134e+02  6.2860e+02  1.0560e-03 -5.9199e-04 -4.5795e-04  0:02:25  961

 reversed flow in 13 faces on pressure-outlet 7. 

 reversed flow in 24 faces on pressure-outlet 8. 
Windkessel 1 :	Q = 5.647096e-07 m3 and P = 5.647096e+02 Pa
	(Pout = 0.000000e+00 Pa,Pc = 0.000000e+00 Pa)
Windkessel 2 :	Q = 4.390993e-07 m3 and P = 6.147390e+02 Pa
	(Pout = 0.000000e+00 Pa,Pc = 0.000000e+00 Pa)
    40  3.2248e-02  1.5742e-03  9.2849e-04  3.4059e-03  1.5925e+03  5.6073e+02  6.0849e+02  1.0560e-03 -5.9633e-04 -4.6369e-04  0:01:56  960

 reversed flow in 13 faces on pressure-outlet 7. 

 reversed flow in 22 faces on pressure-outlet 8. 
Windkessel 1 :	Q = 5.636711e-07 m3 and P = 5.636711e+02 Pa
	(Pout = 0.000000e+00 Pa,Pc = 0.000000e+00 Pa)
Windkessel 2 :	Q = 4.339363e-07 m3 and P = 6.075108e+02 Pa
	(Pout = 0.000000e+00 Pa,Pc = 0.000000e+00 Pa)
    41  2.7811e-02  1.4480e-03  9.5444e-04  3.2133e-03  1.5921e+03  5.6451e+02  6.1457e+02  1.0560e-03 -5.9524e-04 -4.5824e-04  0:01:32  959

 reversed flow in 12 faces on pressure-outlet 7. 

 reversed flow in 25 faces on pressure-outlet 8. 
Windkessel 1 :	Q = 5.606916e-07 m3 and P = 5.606916e+02 Pa
	(Pout = 0.000000e+00 Pa,Pc = 0.000000e+00 Pa)
Windkessel 2 :	Q = 4.290950e-07 m3 and P = 6.007330e+02 Pa
	(Pout = 0.000000e+00 Pa,Pc = 0.000000e+00 Pa)
    42  2.7171e-02  1.4280e-03  9.6244e-04  3.1460e-03  1.5948e+03  5.6366e+02  6.0868e+02  1.0560e-03 -5.9209e-04 -4.5312e-04  0:04:25  958

 reversed flow in 7 faces on pressure-outlet 7. 

 reversed flow in 27 faces on pressure-outlet 8. 
Windkessel 1 :	Q = 5.588171e-07 m3 and P = 5.588171e+02 Pa
	(Pout = 0.000000e+00 Pa,Pc = 0.000000e+00 Pa)
Windkessel 2 :	Q = 4.402270e-07 m3 and P = 6.163178e+02 Pa
	(Pout = 0.000000e+00 Pa,Pc = 0.000000e+00 Pa)
    43  2.6957e-02  1.4263e-03  9.6255e-04  3.1158e-03  1.5969e+03  5.6080e+02  6.0263e+02  1.0560e-03 -5.9011e-04 -4.6488e-04  0:03:32  957

 reversed flow in 6 faces on pressure-outlet 7. 

 reversed flow in 27 faces on pressure-outlet 8. 
Windkessel 1 :	Q = 5.635352e-07 m3 and P = 5.635352e+02 Pa
	(Pout = 0.000000e+00 Pa,Pc = 0.000000e+00 Pa)
Windkessel 2 :	Q = 4.510963e-07 m3 and P = 6.315348e+02 Pa
	(Pout = 0.000000e+00 Pa,Pc = 0.000000e+00 Pa)
    44  2.9945e-02  1.4758e-03  9.8853e-04  3.2029e-03  1.6069e+03  5.5897e+02  6.1520e+02  1.0560e-03 -5.9509e-04 -4.7636e-04  0:02:49  956

 reversed flow in 6 faces on pressure-outlet 7. 

 reversed flow in 26 faces on pressure-outlet 8. 
  iter  continuity  x-velocity  y-velocity  z-velocity  pressure-i  pressure-o  pressure-o  flow-inlet  flow-outle  flow-outle     time/iter
Windkessel 1 :	Q = 5.644269e-07 m3 and P = 5.644269e+02 Pa
	(Pout = 0.000000e+00 Pa,Pc = 0.000000e+00 Pa)
Windkessel 2 :	Q = 4.340343e-07 m3 and P = 6.076480e+02 Pa
	(Pout = 0.000000e+00 Pa,Pc = 0.000000e+00 Pa)
    45  3.1476e-02  1.5008e-03  1.0160e-03  3.2502e-03  1.6066e+03  5.6348e+02  6.2874e+02  1.0560e-03 -5.9603e-04 -4.5834e-04  0:02:15  955

 reversed flow in 5 faces on pressure-outlet 7. 

 reversed flow in 24 faces on pressure-outlet 8. 
Windkessel 1 :	Q = 5.643890e-07 m3 and P = 5.643890e+02 Pa
	(Pout = 0.000000e+00 Pa,Pc = 0.000000e+00 Pa)
Windkessel 2 :	Q = 4.334416e-07 m3 and P = 6.068182e+02 Pa
	(Pout = 0.000000e+00 Pa,Pc = 0.000000e+00 Pa)
    46  3.5527e-02  1.5827e-03  1.0191e-03  3.4002e-03  1.6120e+03  5.6440e+02  6.0949e+02  1.0560e-03 -5.9599e-04 -4.5771e-04  0:01:48  954

 reversed flow in 3 faces on pressure-outlet 7. 

 reversed flow in 25 faces on pressure-outlet 8. 
Windkessel 1 :	Q = 5.628568e-07 m3 and P = 5.628568e+02 Pa
	(Pout = 0.000000e+00 Pa,Pc = 0.000000e+00 Pa)
Windkessel 2 :	Q = 4.410314e-07 m3 and P = 6.174440e+02 Pa
	(Pout = 0.000000e+00 Pa,Pc = 0.000000e+00 Pa)
    47  3.5201e-02  1.5516e-03  1.0534e-03  3.3693e-03  1.6105e+03  5.6439e+02  6.0820e+02  1.0560e-03 -5.9438e-04 -4.6573e-04  0:04:37  953

 reversed flow in 28 faces on pressure-outlet 8. 
Windkessel 1 :	Q = 5.641573e-07 m3 and P = 5.641573e+02 Pa
	(Pout = 0.000000e+00 Pa,Pc = 0.000000e+00 Pa)
Windkessel 2 :	Q = 4.414672e-07 m3 and P = 6.180540e+02 Pa
	(Pout = 0.000000e+00 Pa,Pc = 0.000000e+00 Pa)
    48  3.3175e-02  1.5315e-03  1.0682e-03  3.3222e-03  1.6094e+03  5.6286e+02  6.1703e+02  1.0560e-03 -5.9575e-04 -4.6619e-04  0:03:41  952

 reversed flow in 29 faces on pressure-outlet 8. 
Windkessel 1 :	Q = 5.660233e-07 m3 and P = 5.660233e+02 Pa
	(Pout = 0.000000e+00 Pa,Pc = 0.000000e+00 Pa)
Windkessel 2 :	Q = 4.323465e-07 m3 and P = 6.052851e+02 Pa
	(Pout = 0.000000e+00 Pa,Pc = 0.000000e+00 Pa)
    49  3.2331e-02  1.5156e-03  1.0754e-03  3.3104e-03  1.6103e+03  5.6416e+02  6.1778e+02  1.0560e-03 -5.9772e-04 -4.5656e-04  0:02:57  951

 reversed flow in 31 faces on pressure-outlet 8. 
Windkessel 1 :	Q = 5.648630e-07 m3 and P = 5.648630e+02 Pa
	(Pout = 0.000000e+00 Pa,Pc = 0.000000e+00 Pa)
Windkessel 2 :	Q = 4.315796e-07 m3 and P = 6.042115e+02 Pa
	(Pout = 0.000000e+00 Pa,Pc = 0.000000e+00 Pa)
    50  3.2218e-02  1.5018e-03  1.0996e-03  3.3173e-03  1.6111e+03  5.6602e+02  6.0711e+02  1.0560e-03 -5.9650e-04 -4.5575e-04  0:02:21  950

 reversed flow in 31 faces on pressure-outlet 8. 
Windkessel 1 :	Q = 5.657919e-07 m3 and P = 5.657919e+02 Pa
	(Pout = 0.000000e+00 Pa,Pc = 0.000000e+00 Pa)
Windkessel 2 :	Q = 4.412819e-07 m3 and P = 6.177947e+02 Pa
	(Pout = 0.000000e+00 Pa,Pc = 0.000000e+00 Pa)
    51  3.5310e-02  1.5508e-03  1.1158e-03  3.4401e-03  1.6103e+03  5.6486e+02  6.0559e+02  1.0560e-03 -5.9748e-04 -4.6599e-04  0:01:53  949

 reversed flow in 31 faces on pressure-outlet 8. 
Windkessel 1 :	Q = 5.676979e-07 m3 and P = 5.676979e+02 Pa
	(Pout = 0.000000e+00 Pa,Pc = 0.000000e+00 Pa)
Windkessel 2 :	Q = 4.418066e-07 m3 and P = 6.185293e+02 Pa
	(Pout = 0.000000e+00 Pa,Pc = 0.000000e+00 Pa)
    52  3.4864e-02  1.5336e-03  1.1250e-03  3.3739e-03  1.6090e+03  5.6579e+02  6.1671e+02  1.0560e-03 -5.9949e-04 -4.6655e-04  0:04:40  948

 reversed flow in 32 faces on pressure-outlet 8. 
Windkessel 1 :	Q = 5.668310e-07 m3 and P = 5.668310e+02 Pa
	(Pout = 0.000000e+00 Pa,Pc = 0.000000e+00 Pa)
Windkessel 2 :	Q = 4.285565e-07 m3 and P = 5.999792e+02 Pa
	(Pout = 0.000000e+00 Pa,Pc = 0.000000e+00 Pa)
    53  3.6539e-02  1.5465e-03  1.1247e-03  3.4284e-03  1.6105e+03  5.6770e+02  6.1793e+02  1.0560e-03 -5.9857e-04 -4.5256e-04  0:03:44  947

 reversed flow in 31 faces on pressure-outlet 8. 
Windkessel 1 :	Q = 5.628555e-07 m3 and P = 5.628555e+02 Pa
	(Pout = 0.000000e+00 Pa,Pc = 0.000000e+00 Pa)
Windkessel 2 :	Q = 4.247308e-07 m3 and P = 5.946231e+02 Pa
	(Pout = 0.000000e+00 Pa,Pc = 0.000000e+00 Pa)
    54  3.7522e-02  1.5299e-03  1.1315e-03  3.4191e-03  1.6109e+03  5.6683e+02  6.0202e+02  1.0560e-03 -5.9438e-04 -4.4852e-04  0:02:59  946

 reversed flow in 27 faces on pressure-outlet 8. 
Windkessel 1 :	Q = 5.679548e-07 m3 and P = 5.679548e+02 Pa
	(Pout = 0.000000e+00 Pa,Pc = 0.000000e+00 Pa)
Windkessel 2 :	Q = 4.432895e-07 m3 and P = 6.206053e+02 Pa
	(Pout = 0.000000e+00 Pa,Pc = 0.000000e+00 Pa)
    55  3.9782e-02  1.6047e-03  1.1329e-03  3.4802e-03  1.6081e+03  5.6286e+02  5.9661e+02  1.0560e-03 -5.9976e-04 -4.6811e-04  0:02:23  945

 reversed flow in 25 faces on pressure-outlet 8. 
  iter  continuity  x-velocity  y-velocity  z-velocity  pressure-i  pressure-o  pressure-o  flow-inlet  flow-outle  flow-outle     time/iter
Windkessel 1 :	Q = 5.712900e-07 m3 and P = 5.712900e+02 Pa
	(Pout = 0.000000e+00 Pa,Pc = 0.000000e+00 Pa)
Windkessel 2 :	Q = 4.443877e-07 m3 and P = 6.221427e+02 Pa
	(Pout = 0.000000e+00 Pa,Pc = 0.000000e+00 Pa)
    56  4.1529e-02  1.6009e-03  1.1285e-03  3.5118e-03  1.6035e+03  5.6795e+02  6.1885e+02  1.0560e-03 -6.0328e-04 -4.6927e-04  0:01:54  944

 reversed flow in 23 faces on pressure-outlet 8. 
Windkessel 1 :	Q = 5.677890e-07 m3 and P = 5.677890e+02 Pa
	(Pout = 0.000000e+00 Pa,Pc = 0.000000e+00 Pa)
Windkessel 2 :	Q = 4.242479e-07 m3 and P = 5.939470e+02 Pa
	(Pout = 0.000000e+00 Pa,Pc = 0.000000e+00 Pa)
    57  4.2092e-02  1.6145e-03  1.1237e-03  3.5239e-03  1.6064e+03  5.7129e+02  6.2101e+02  1.0560e-03 -5.9959e-04 -4.4801e-04  0:01:31  943

 reversed flow in 23 faces on pressure-outlet 8. 
Windkessel 1 :	Q = 5.637296e-07 m3 and P = 5.637296e+02 Pa
	(Pout = 0.000000e+00 Pa,Pc = 0.000000e+00 Pa)
Windkessel 2 :	Q = 4.213185e-07 m3 and P = 5.898458e+02 Pa
	(Pout = 0.000000e+00 Pa,Pc = 0.000000e+00 Pa)
    58  4.1878e-02  1.5596e-03  1.1191e-03  3.4835e-03  1.6083e+03  5.6779e+02  5.9719e+02  1.0560e-03 -5.9530e-04 -4.4491e-04  0:04:21  942

 reversed flow in 20 faces on pressure-outlet 8. 
Windkessel 1 :	Q = 5.704008e-07 m3 and P = 5.704008e+02 Pa
	(Pout = 0.000000e+00 Pa,Pc = 0.000000e+00 Pa)
Windkessel 2 :	Q = 4.434303e-07 m3 and P = 6.208024e+02 Pa
	(Pout = 0.000000e+00 Pa,Pc = 0.000000e+00 Pa)
    59  4.3428e-02  1.6175e-03  1.0930e-03  3.4740e-03  1.6011e+03  5.6373e+02  5.9253e+02  1.0560e-03 -6.0234e-04 -4.6826e-04  0:03:29  941

 reversed flow in 26 faces on pressure-outlet 8. 
Windkessel 1 :	Q = 5.731435e-07 m3 and P = 5.731435e+02 Pa
	(Pout = 0.000000e+00 Pa,Pc = 0.000000e+00 Pa)
Windkessel 2 :	Q = 4.438332e-07 m3 and P = 6.213664e+02 Pa
	(Pout = 0.000000e+00 Pa,Pc = 0.000000e+00 Pa)
    60  4.4186e-02  1.5655e-03  1.0867e-03  3.4602e-03  1.5954e+03  5.7040e+02  6.1855e+02  1.0560e-03 -6.0524e-04 -4.6869e-04  0:02:47  940

 reversed flow in 24 faces on pressure-outlet 8. 
Windkessel 1 :	Q = 5.681620e-07 m3 and P = 5.681620e+02 Pa
	(Pout = 0.000000e+00 Pa,Pc = 0.000000e+00 Pa)
Windkessel 2 :	Q = 4.257808e-07 m3 and P = 5.960931e+02 Pa
	(Pout = 0.000000e+00 Pa,Pc = 0.000000e+00 Pa)
    61  4.5138e-02  1.5776e-03  1.0670e-03  3.4630e-03  1.5972e+03  5.7314e+02  6.2007e+02  1.0560e-03 -5.9998e-04 -4.4962e-04  0:02:13  939

 reversed flow in 22 faces on pressure-outlet 8. 
Windkessel 1 :	Q = 5.661445e-07 m3 and P = 5.661445e+02 Pa
	(Pout = 0.000000e+00 Pa,Pc = 0.000000e+00 Pa)
Windkessel 2 :	Q = 4.220266e-07 m3 and P = 5.908372e+02 Pa
	(Pout = 0.000000e+00 Pa,Pc = 0.000000e+00 Pa)
    62  4.3205e-02  1.5089e-03  1.0517e-03  3.3690e-03  1.5984e+03  5.6816e+02  5.9851e+02  1.0560e-03 -5.9785e-04 -4.4566e-04  0:01:47  938

 reversed flow in 23 faces on pressure-outlet 8. 
Windkessel 1 :	Q = 5.712854e-07 m3 and P = 5.712854e+02 Pa
	(Pout = 0.000000e+00 Pa,Pc = 0.000000e+00 Pa)
Windkessel 2 :	Q = 4.440703e-07 m3 and P = 6.216985e+02 Pa
	(Pout = 0.000000e+00 Pa,Pc = 0.000000e+00 Pa)
    63  4.2914e-02  1.5501e-03  1.0133e-03  3.3415e-03  1.5918e+03  5.6614e+02  5.9308e+02  1.0560e-03 -6.0328e-04 -4.6894e-04  0:04:33  937

 reversed flow in 24 faces on pressure-outlet 8. 
Windkessel 1 :	Q = 5.720306e-07 m3 and P = 5.720306e+02 Pa
	(Pout = 0.000000e+00 Pa,Pc = 0.000000e+00 Pa)
Windkessel 2 :	Q = 4.466728e-07 m3 and P = 6.253419e+02 Pa
	(Pout = 0.000000e+00 Pa,Pc = 0.000000e+00 Pa)
    64  4.2270e-02  1.5203e-03  9.9703e-04  3.3041e-03  1.5854e+03  5.7129e+02  6.1964e+02  1.0560e-03 -6.0406e-04 -4.7169e-04  0:03:38  936

 reversed flow in 23 faces on pressure-outlet 8. 
Windkessel 1 :	Q = 5.679801e-07 m3 and P = 5.679801e+02 Pa
	(Pout = 0.000000e+00 Pa,Pc = 0.000000e+00 Pa)
Windkessel 2 :	Q = 4.242319e-07 m3 and P = 5.939246e+02 Pa
	(Pout = 0.000000e+00 Pa,Pc = 0.000000e+00 Pa)
    65  4.2960e-02  1.5497e-03  9.7246e-04  3.3502e-03  1.5844e+03  5.7203e+02  6.2364e+02  1.0560e-03 -5.9979e-04 -4.4799e-04  0:02:54  935

 reversed flow in 25 faces on pressure-outlet 8. 
Windkessel 1 :	Q = 5.675784e-07 m3 and P = 5.675784e+02 Pa
	(Pout = 0.000000e+00 Pa,Pc = 0.000000e+00 Pa)
Windkessel 2 :	Q = 4.213367e-07 m3 and P = 5.898714e+02 Pa
	(Pout = 0.000000e+00 Pa,Pc = 0.000000e+00 Pa)
    66  4.1070e-02  1.5031e-03  9.6748e-04  3.2405e-03  1.5865e+03  5.6798e+02  5.9672e+02  1.0560e-03 -5.9936e-04 -4.4493e-04  0:02:19  934

 reversed flow in 22 faces on pressure-outlet 8. 
  iter  continuity  x-velocity  y-velocity  z-velocity  pressure-i  pressure-o  pressure-o  flow-inlet  flow-outle  flow-outle     time/iter
Windkessel 1 :	Q = 5.705281e-07 m3 and P = 5.705281e+02 Pa
	(Pout = 0.000000e+00 Pa,Pc = 0.000000e+00 Pa)
Windkessel 2 :	Q = 4.435472e-07 m3 and P = 6.209661e+02 Pa
	(Pout = 0.000000e+00 Pa,Pc = 0.000000e+00 Pa)
    67  4.3090e-02  1.5359e-03  9.4137e-04  3.2703e-03  1.5823e+03  5.6758e+02  5.9220e+02  1.0560e-03 -6.0248e-04 -4.6839e-04  0:01:51  933

 reversed flow in 23 faces on pressure-outlet 8. 
Windkessel 1 :	Q = 5.712806e-07 m3 and P = 5.712806e+02 Pa
	(Pout = 0.000000e+00 Pa,Pc = 0.000000e+00 Pa)
Windkessel 2 :	Q = 4.466226e-07 m3 and P = 6.252716e+02 Pa
	(Pout = 0.000000e+00 Pa,Pc = 0.000000e+00 Pa)
    68  4.0971e-02  1.4745e-03  9.3730e-04  3.1470e-03  1.5780e+03  5.7053e+02  6.1871e+02  1.0560e-03 -6.0327e-04 -4.7163e-04  0:04:35  932

 reversed flow in 23 faces on pressure-outlet 8. 
Windkessel 1 :	Q = 5.688781e-07 m3 and P = 5.688781e+02 Pa
	(Pout = 0.000000e+00 Pa,Pc = 0.000000e+00 Pa)
Windkessel 2 :	Q = 4.278002e-07 m3 and P = 5.989203e+02 Pa
	(Pout = 0.000000e+00 Pa,Pc = 0.000000e+00 Pa)
    69  4.1452e-02  1.4675e-03  9.0946e-04  3.1394e-03  1.5810e+03  5.7128e+02  6.2357e+02  1.0560e-03 -6.0074e-04 -4.5176e-04  0:03:40  931

 reversed flow in 21 faces on pressure-outlet 8. 
Windkessel 1 :	Q = 5.706860e-07 m3 and P = 5.706860e+02 Pa
	(Pout = 0.000000e+00 Pa,Pc = 0.000000e+00 Pa)
Windkessel 2 :	Q = 4.215128e-07 m3 and P = 5.901179e+02 Pa
	(Pout = 0.000000e+00 Pa,Pc = 0.000000e+00 Pa)
    70  3.9377e-02  1.4140e-03  8.9237e-04  3.0436e-03  1.5813e+03  5.6888e+02  6.0066e+02  1.0560e-03 -6.0264e-04 -4.4512e-04  0:02:56  930

 reversed flow in 16 faces on pressure-outlet 8. 
Windkessel 1 :	Q = 5.742731e-07 m3 and P = 5.742731e+02 Pa
	(Pout = 0.000000e+00 Pa,Pc = 0.000000e+00 Pa)
Windkessel 2 :	Q = 4.456628e-07 m3 and P = 6.239279e+02 Pa
	(Pout = 0.000000e+00 Pa,Pc = 0.000000e+00 Pa)
    71  3.9393e-02  1.4042e-03  8.6289e-04  2.9959e-03  1.5742e+03  5.7069e+02  5.9222e+02  1.0560e-03 -6.0643e-04 -4.7062e-04  0:02:20  929

 reversed flow in 18 faces on pressure-outlet 8. 
Windkessel 1 :	Q = 5.719315e-07 m3 and P = 5.719315e+02 Pa
	(Pout = 0.000000e+00 Pa,Pc = 0.000000e+00 Pa)
Windkessel 2 :	Q = 4.485000e-07 m3 and P = 6.279000e+02 Pa
	(Pout = 0.000000e+00 Pa,Pc = 0.000000e+00 Pa)
    72  3.8478e-02  1.3762e-03  8.4158e-04  2.9434e-03  1.5695e+03  5.7427e+02  6.2194e+02  1.0560e-03 -6.0396e-04 -4.7362e-04  0:01:52  928

 reversed flow in 18 faces on pressure-outlet 8. 
Windkessel 1 :	Q = 5.664296e-07 m3 and P = 5.664296e+02 Pa
	(Pout = 0.000000e+00 Pa,Pc = 0.000000e+00 Pa)
Windkessel 2 :	Q = 4.393742e-07 m3 and P = 6.151239e+02 Pa
	(Pout = 0.000000e+00 Pa,Pc = 0.000000e+00 Pa)
    73  4.0551e-02  1.3675e-03  8.1673e-04  2.9822e-03  1.5702e+03  5.7193e+02  6.2658e+02  1.0560e-03 -5.9815e-04 -4.6398e-04  0:01:30  927

 reversed flow in 15 faces on pressure-outlet 8. 
Windkessel 1 :	Q = 5.666662e-07 m3 and P = 5.666662e+02 Pa
	(Pout = 0.000000e+00 Pa,Pc = 0.000000e+00 Pa)
Windkessel 2 :	Q = 4.281521e-07 m3 and P = 5.994129e+02 Pa
	(Pout = 0.000000e+00 Pa,Pc = 0.000000e+00 Pa)
    74  3.6496e-02  1.2959e-03  8.0676e-04  2.7982e-03  1.5675e+03  5.6643e+02  6.1576e+02  1.0560e-03 -5.9840e-04 -4.5213e-04  0:04:17  926

 reversed flow in 13 faces on pressure-outlet 8. 
Windkessel 1 :	Q = 5.735830e-07 m3 and P = 5.735830e+02 Pa
	(Pout = 0.000000e+00 Pa,Pc = 0.000000e+00 Pa)
Windkessel 2 :	Q = 4.382429e-07 m3 and P = 6.135400e+02 Pa
	(Pout = 0.000000e+00 Pa,Pc = 0.000000e+00 Pa)
    75  3.4372e-02  1.1743e-03  7.6337e-04  2.6732e-03  1.5644e+03  5.6667e+02  6.0162e+02  1.0560e-03 -6.0570e-04 -4.6278e-04  0:03:25  925

 reversed flow in 16 faces on pressure-outlet 8. 
Windkessel 1 :	Q = 5.681539e-07 m3 and P = 5.681539e+02 Pa
	(Pout = 0.000000e+00 Pa,Pc = 0.000000e+00 Pa)
Windkessel 2 :	Q = 4.446671e-07 m3 and P = 6.225339e+02 Pa
	(Pout = 0.000000e+00 Pa,Pc = 0.000000e+00 Pa)
    76  3.5861e-02  1.2223e-03  7.4119e-04  2.6845e-03  1.5605e+03  5.7358e+02  6.1345e+02  1.0560e-03 -5.9997e-04 -4.6957e-04  0:02:44  924

 reversed flow in 18 faces on pressure-outlet 8. 
Windkessel 1 :	Q = 5.545174e-07 m3 and P = 5.545174e+02 Pa
	(Pout = 0.000000e+00 Pa,Pc = 0.000000e+00 Pa)
Windkessel 2 :	Q = 4.372033e-07 m3 and P = 6.120846e+02 Pa
	(Pout = 0.000000e+00 Pa,Pc = 0.000000e+00 Pa)
    77  3.1901e-02  1.1016e-03  7.2404e-04  2.5002e-03  1.5597e+03  5.6815e+02  6.2148e+02  1.0560e-03 -5.8557e-04 -4.6169e-04  0:02:11  923

 reversed flow in 18 faces on pressure-outlet 8. 
  iter  continuity  x-velocity  y-velocity  z-velocity  pressure-i  pressure-o  pressure-o  flow-inlet  flow-outle  flow-outle     time/iter
Windkessel 1 :	Q = 5.693791e-07 m3 and P = 5.693791e+02 Pa
	(Pout = 0.000000e+00 Pa,Pc = 0.000000e+00 Pa)
Windkessel 2 :	Q = 4.318438e-07 m3 and P = 6.045813e+02 Pa
	(Pout = 0.000000e+00 Pa,Pc = 0.000000e+00 Pa)
    78  3.1213e-02  1.0960e-03  6.8748e-04  2.4406e-03  1.5600e+03  5.5452e+02  6.1250e+02  1.0560e-03 -6.0126e-04 -4.5603e-04  0:01:45  922

 reversed flow in 15 faces on pressure-outlet 8. 
Windkessel 1 :	Q = 5.719724e-07 m3 and P = 5.719724e+02 Pa
	(Pout = 0.000000e+00 Pa,Pc = 0.000000e+00 Pa)
Windkessel 2 :	Q = 4.389525e-07 m3 and P = 6.145335e+02 Pa
	(Pout = 0.000000e+00 Pa,Pc = 0.000000e+00 Pa)
    79  3.5218e-02  1.0226e-03  6.5993e-04  2.5087e-03  1.5531e+03  5.6938e+02  6.0560e+02  1.0560e-03 -6.0400e-04 -4.6353e-04  0:04:28  921

 reversed flow in 16 faces on pressure-outlet 8. 
Windkessel 1 :	Q = 5.699657e-07 m3 and P = 5.699657e+02 Pa
	(Pout = 0.000000e+00 Pa,Pc = 0.000000e+00 Pa)
Windkessel 2 :	Q = 4.443612e-07 m3 and P = 6.221056e+02 Pa
	(Pout = 0.000000e+00 Pa,Pc = 0.000000e+00 Pa)
    80  3.1800e-02  1.0455e-03  6.4802e-04  2.3908e-03  1.5527e+03  5.7197e+02  6.1418e+02  1.0560e-03 -6.0188e-04 -4.6925e-04  0:03:34  920

 reversed flow in 16 faces on pressure-outlet 8. 
Windkessel 1 :	Q = 5.597377e-07 m3 and P = 5.597377e+02 Pa
	(Pout = 0.000000e+00 Pa,Pc = 0.000000e+00 Pa)
Windkessel 2 :	Q = 4.362718e-07 m3 and P = 6.107805e+02 Pa
	(Pout = 0.000000e+00 Pa,Pc = 0.000000e+00 Pa)
    81  2.8523e-02  9.7027e-04  6.3002e-04  2.2385e-03  1.5506e+03  5.6997e+02  6.2124e+02  1.0560e-03 -5.9108e-04 -4.6070e-04  0:02:51  919

 reversed flow in 16 faces on pressure-outlet 8. 
Windkessel 1 :	Q = 5.657863e-07 m3 and P = 5.657863e+02 Pa
	(Pout = 0.000000e+00 Pa,Pc = 0.000000e+00 Pa)
Windkessel 2 :	Q = 4.315145e-07 m3 and P = 6.041203e+02 Pa
	(Pout = 0.000000e+00 Pa,Pc = 0.000000e+00 Pa)
    82  2.7846e-02  9.7859e-04  6.1235e-04  2.1683e-03  1.5509e+03  5.5974e+02  6.1136e+02  1.0560e-03 -5.9747e-04 -4.5568e-04  0:02:17  918

 reversed flow in 14 faces on pressure-outlet 8. 
Windkessel 1 :	Q = 5.700124e-07 m3 and P = 5.700124e+02 Pa
	(Pout = 0.000000e+00 Pa,Pc = 0.000000e+00 Pa)
Windkessel 2 :	Q = 4.372990e-07 m3 and P = 6.122185e+02 Pa
	(Pout = 0.000000e+00 Pa,Pc = 0.000000e+00 Pa)
    83  2.9438e-02  9.3000e-04  6.0198e-04  2.1854e-03  1.5467e+03  5.6579e+02  6.0518e+02  1.0560e-03 -6.0193e-04 -4.6179e-04  0:01:49  917

 reversed flow in 14 faces on pressure-outlet 8. 
Windkessel 1 :	Q = 5.684509e-07 m3 and P = 5.684509e+02 Pa
	(Pout = 0.000000e+00 Pa,Pc = 0.000000e+00 Pa)
Windkessel 2 :	Q = 4.412576e-07 m3 and P = 6.177606e+02 Pa
	(Pout = 0.000000e+00 Pa,Pc = 0.000000e+00 Pa)
    84  2.5389e-02  9.3275e-04  5.8738e-04  2.0229e-03  1.5439e+03  5.7001e+02  6.1211e+02  1.0560e-03 -6.0028e-04 -4.6597e-04  0:01:27  916

 reversed flow in 14 faces on pressure-outlet 8. 
Windkessel 1 :	Q = 5.599988e-07 m3 and P = 5.599988e+02 Pa
	(Pout = 0.000000e+00 Pa,Pc = 0.000000e+00 Pa)
Windkessel 2 :	Q = 4.365941e-07 m3 and P = 6.112317e+02 Pa
	(Pout = 0.000000e+00 Pa,Pc = 0.000000e+00 Pa)
    85  2.3877e-02  8.5399e-04  5.7235e-04  1.9432e-03  1.5442e+03  5.6845e+02  6.1717e+02  1.0560e-03 -5.9136e-04 -4.6104e-04  0:04:13  915

 reversed flow in 14 faces on pressure-outlet 8. 
Windkessel 1 :	Q = 5.664256e-07 m3 and P = 5.664256e+02 Pa
	(Pout = 0.000000e+00 Pa,Pc = 0.000000e+00 Pa)
Windkessel 2 :	Q = 4.304270e-07 m3 and P = 6.025978e+02 Pa
	(Pout = 0.000000e+00 Pa,Pc = 0.000000e+00 Pa)
    86  2.2845e-02  8.5698e-04  5.5722e-04  1.8717e-03  1.5443e+03  5.6000e+02  6.1142e+02  1.0560e-03 -5.9815e-04 -4.5453e-04  0:03:22  914

 reversed flow in 13 faces on pressure-outlet 8. 
Windkessel 1 :	Q = 5.705998e-07 m3 and P = 5.705998e+02 Pa
	(Pout = 0.000000e+00 Pa,Pc = 0.000000e+00 Pa)
Windkessel 2 :	Q = 4.369096e-07 m3 and P = 6.116735e+02 Pa
	(Pout = 0.000000e+00 Pa,Pc = 0.000000e+00 Pa)
    87  2.4295e-02  8.0828e-04  5.4599e-04  1.8830e-03  1.5409e+03  5.6643e+02  6.0336e+02  1.0560e-03 -6.0255e-04 -4.6138e-04  0:02:41  913

 reversed flow in 13 faces on pressure-outlet 8. 
Windkessel 1 :	Q = 5.687443e-07 m3 and P = 5.687443e+02 Pa
	(Pout = 0.000000e+00 Pa,Pc = 0.000000e+00 Pa)
Windkessel 2 :	Q = 4.403386e-07 m3 and P = 6.164740e+02 Pa
	(Pout = 0.000000e+00 Pa,Pc = 0.000000e+00 Pa)
    88  2.3144e-02  8.4689e-04  5.3818e-04  1.8218e-03  1.5393e+03  5.7060e+02  6.1153e+02  1.0560e-03 -6.0059e-04 -4.6500e-04  0:02:09  912

 reversed flow in 13 faces on pressure-outlet 8. 
  iter  continuity  x-velocity  y-velocity  z-velocity  pressure-i  pressure-o  pressure-o  flow-inlet  flow-outle  flow-outle     time/iter
Windkessel 1 :	Q = 5.642823e-07 m3 and P = 5.642823e+02 Pa
	(Pout = 0.000000e+00 Pa,Pc = 0.000000e+00 Pa)
Windkessel 2 :	Q = 4.390625e-07 m3 and P = 6.146876e+02 Pa
	(Pout = 0.000000e+00 Pa,Pc = 0.000000e+00 Pa)
    89  2.1918e-02  7.7942e-04  5.2944e-04  1.7513e-03  1.5410e+03  5.6874e+02  6.1600e+02  1.0560e-03 -5.9588e-04 -4.6365e-04  0:01:43  911

 reversed flow in 13 faces on pressure-outlet 8. 
Windkessel 1 :	Q = 5.643341e-07 m3 and P = 5.643341e+02 Pa
	(Pout = 0.000000e+00 Pa,Pc = 0.000000e+00 Pa)
Windkessel 2 :	Q = 4.344048e-07 m3 and P = 6.081668e+02 Pa
	(Pout = 0.000000e+00 Pa,Pc = 0.000000e+00 Pa)
    90  2.0566e-02  7.8510e-04  5.1724e-04  1.6761e-03  1.5406e+03  5.6428e+02  6.1455e+02  1.0560e-03 -5.9594e-04 -4.5873e-04  0:04:24  910

 reversed flow in 13 faces on pressure-outlet 8. 
Windkessel 1 :	Q = 5.690903e-07 m3 and P = 5.690903e+02 Pa
	(Pout = 0.000000e+00 Pa,Pc = 0.000000e+00 Pa)
Windkessel 2 :	Q = 4.342278e-07 m3 and P = 6.079190e+02 Pa
	(Pout = 0.000000e+00 Pa,Pc = 0.000000e+00 Pa)
    91  2.0065e-02  7.3993e-04  5.0544e-04  1.6246e-03  1.5389e+03  5.6433e+02  6.0861e+02  1.0560e-03 -6.0096e-04 -4.5854e-04  0:03:31  909

 reversed flow in 13 faces on pressure-outlet 8. 
Windkessel 1 :	Q = 5.692079e-07 m3 and P = 5.692079e+02 Pa
	(Pout = 0.000000e+00 Pa,Pc = 0.000000e+00 Pa)
Windkessel 2 :	Q = 4.395031e-07 m3 and P = 6.153044e+02 Pa
	(Pout = 0.000000e+00 Pa,Pc = 0.000000e+00 Pa)
    92  1.9310e-02  7.4765e-04  4.9281e-04  1.5875e-03  1.5372e+03  5.6909e+02  6.0823e+02  1.0560e-03 -6.0108e-04 -4.6412e-04  0:02:49  908

 reversed flow in 13 faces on pressure-outlet 8. 
Windkessel 1 :	Q = 5.647301e-07 m3 and P = 5.647301e+02 Pa
	(Pout = 0.000000e+00 Pa,Pc = 0.000000e+00 Pa)
Windkessel 2 :	Q = 4.394533e-07 m3 and P = 6.152347e+02 Pa
	(Pout = 0.000000e+00 Pa,Pc = 0.000000e+00 Pa)
    93  1.8862e-02  7.1622e-04  4.8255e-04  1.5342e-03  1.5373e+03  5.6921e+02  6.1491e+02  1.0560e-03 -5.9636e-04 -4.6406e-04  0:02:15  907

 reversed flow in 13 faces on pressure-outlet 8. 
Windkessel 1 :	Q = 5.646632e-07 m3 and P = 5.646632e+02 Pa
	(Pout = 0.000000e+00 Pa,Pc = 0.000000e+00 Pa)
Windkessel 2 :	Q = 4.353622e-07 m3 and P = 6.095071e+02 Pa
	(Pout = 0.000000e+00 Pa,Pc = 0.000000e+00 Pa)
    94  1.8442e-02  7.1753e-04  4.7714e-04  1.4955e-03  1.5388e+03  5.6473e+02  6.1505e+02  1.0560e-03 -5.9628e-04 -4.5974e-04  0:01:48  906

 reversed flow in 12 faces on pressure-outlet 8. 
Windkessel 1 :	Q = 5.672768e-07 m3 and P = 5.672768e+02 Pa
	(Pout = 0.000000e+00 Pa,Pc = 0.000000e+00 Pa)
Windkessel 2 :	Q = 4.341592e-07 m3 and P = 6.078229e+02 Pa
	(Pout = 0.000000e+00 Pa,Pc = 0.000000e+00 Pa)
    95  1.7838e-02  6.8762e-04  4.6638e-04  1.4429e-03  1.5382e+03  5.6466e+02  6.0984e+02  1.0560e-03 -5.9904e-04 -4.5847e-04  0:04:27  905

 reversed flow in 12 faces on pressure-outlet 8. 
Windkessel 1 :	Q = 5.683314e-07 m3 and P = 5.683314e+02 Pa
	(Pout = 0.000000e+00 Pa,Pc = 0.000000e+00 Pa)
Windkessel 2 :	Q = 4.385976e-07 m3 and P = 6.140366e+02 Pa
	(Pout = 0.000000e+00 Pa,Pc = 0.000000e+00 Pa)
    96  1.6856e-02  6.8328e-04  4.5508e-04  1.3880e-03  1.5367e+03  5.6728e+02  6.0818e+02  1.0560e-03 -6.0016e-04 -4.6316e-04  0:03:33  904

 reversed flow in 12 faces on pressure-outlet 8. 
Windkessel 1 :	Q = 5.663258e-07 m3 and P = 5.663258e+02 Pa
	(Pout = 0.000000e+00 Pa,Pc = 0.000000e+00 Pa)
Windkessel 2 :	Q = 4.399108e-07 m3 and P = 6.158751e+02 Pa
	(Pout = 0.000000e+00 Pa,Pc = 0.000000e+00 Pa)
    97  1.6208e-02  6.6838e-04  4.4617e-04  1.3387e-03  1.5361e+03  5.6833e+02  6.1379e+02  1.0560e-03 -5.9804e-04 -4.6455e-04  0:02:51  903

 reversed flow in 12 faces on pressure-outlet 8. 
Windkessel 1 :	Q = 5.648719e-07 m3 and P = 5.648719e+02 Pa
	(Pout = 0.000000e+00 Pa,Pc = 0.000000e+00 Pa)
Windkessel 2 :	Q = 4.358819e-07 m3 and P = 6.102347e+02 Pa
	(Pout = 0.000000e+00 Pa,Pc = 0.000000e+00 Pa)
    98  1.6093e-02  6.6155e-04  4.3822e-04  1.3109e-03  1.5365e+03  5.6633e+02  6.1558e+02  1.0560e-03 -5.9650e-04 -4.6029e-04  0:02:16  902

 reversed flow in 12 faces on pressure-outlet 8. 
Windkessel 1 :	Q = 5.645553e-07 m3 and P = 5.645553e+02 Pa
	(Pout = 0.000000e+00 Pa,Pc = 0.000000e+00 Pa)
Windkessel 2 :	Q = 4.342627e-07 m3 and P = 6.079678e+02 Pa
	(Pout = 0.000000e+00 Pa,Pc = 0.000000e+00 Pa)
    99  1.5333e-02  6.5332e-04  4.3201e-04  1.2636e-03  1.5368e+03  5.6487e+02  6.1048e+02  1.0560e-03 -5.9617e-04 -4.5858e-04  0:01:49  901

 reversed flow in 12 faces on pressure-outlet 8. 
  iter  continuity  x-velocity  y-velocity  z-velocity  pressure-i  pressure-o  pressure-o  flow-inlet  flow-outle  flow-outle     time/iter
Windkessel 1 :	Q = 5.666931e-07 m3 and P = 5.666931e+02 Pa
	(Pout = 0.000000e+00 Pa,Pc = 0.000000e+00 Pa)
Windkessel 2 :	Q = 4.378203e-07 m3 and P = 6.129484e+02 Pa
	(Pout = 0.000000e+00 Pa,Pc = 0.000000e+00 Pa)
   100  1.5130e-02  6.3926e-04  4.2670e-04  1.2445e-03  1.5359e+03  5.6456e+02  6.0830e+02  1.0560e-03 -5.9843e-04 -4.6234e-04  0:04:27  900

 reversed flow in 12 faces on pressure-outlet 8. 
Windkessel 1 :	Q = 5.671046e-07 m3 and P = 5.671046e+02 Pa
	(Pout = 0.000000e+00 Pa,Pc = 0.000000e+00 Pa)
Windkessel 2 :	Q = 4.391754e-07 m3 and P = 6.148456e+02 Pa
	(Pout = 0.000000e+00 Pa,Pc = 0.000000e+00 Pa)
   101  1.4872e-02  6.3281e-04  4.2194e-04  1.2163e-03  1.5347e+03  5.6669e+02  6.1284e+02  1.0560e-03 -5.9886e-04 -4.6377e-04  0:03:33  899

 reversed flow in 12 faces on pressure-outlet 8. 
Windkessel 1 :	Q = 5.638221e-07 m3 and P = 5.638221e+02 Pa
	(Pout = 0.000000e+00 Pa,Pc = 0.000000e+00 Pa)
Windkessel 2 :	Q = 4.357557e-07 m3 and P = 6.100580e+02 Pa
	(Pout = 0.000000e+00 Pa,Pc = 0.000000e+00 Pa)
   102  1.4198e-02  6.1570e-04  4.1719e-04  1.1739e-03  1.5351e+03  5.6710e+02  6.1467e+02  1.0560e-03 -5.9540e-04 -4.6016e-04  0:02:51  898

 reversed flow in 12 faces on pressure-outlet 8. 
Windkessel 1 :	Q = 5.646044e-07 m3 and P = 5.646044e+02 Pa
	(Pout = 0.000000e+00 Pa,Pc = 0.000000e+00 Pa)
Windkessel 2 :	Q = 4.353086e-07 m3 and P = 6.094321e+02 Pa
	(Pout = 0.000000e+00 Pa,Pc = 0.000000e+00 Pa)
   103  1.4206e-02  6.1171e-04  4.1143e-04  1.1533e-03  1.5358e+03  5.6382e+02  6.1033e+02  1.0560e-03 -5.9622e-04 -4.5969e-04  0:02:16  897

 reversed flow in 12 faces on pressure-outlet 8. 
Windkessel 1 :	Q = 5.661158e-07 m3 and P = 5.661158e+02 Pa
	(Pout = 0.000000e+00 Pa,Pc = 0.000000e+00 Pa)
Windkessel 2 :	Q = 4.375388e-07 m3 and P = 6.125543e+02 Pa
	(Pout = 0.000000e+00 Pa,Pc = 0.000000e+00 Pa)
   104  1.4248e-02  6.0220e-04  4.0503e-04  1.1495e-03  1.5344e+03  5.6460e+02  6.0967e+02  1.0560e-03 -5.9782e-04 -4.6204e-04  0:01:49  896

 reversed flow in 12 faces on pressure-outlet 8. 
Windkessel 1 :	Q = 5.658366e-07 m3 and P = 5.658366e+02 Pa
	(Pout = 0.000000e+00 Pa,Pc = 0.000000e+00 Pa)
Windkessel 2 :	Q = 4.384982e-07 m3 and P = 6.138975e+02 Pa
	(Pout = 0.000000e+00 Pa,Pc = 0.000000e+00 Pa)
   105  1.2971e-02  5.8843e-04  3.9843e-04  1.0852e-03  1.5338e+03  5.6612e+02  6.1248e+02  1.0560e-03 -5.9752e-04 -4.6305e-04  0:01:27  895

 reversed flow in 12 faces on pressure-outlet 8. 
Windkessel 1 :	Q = 5.629837e-07 m3 and P = 5.629837e+02 Pa
	(Pout = 0.000000e+00 Pa,Pc = 0.000000e+00 Pa)
Windkessel 2 :	Q = 4.357549e-07 m3 and P = 6.100569e+02 Pa
	(Pout = 0.000000e+00 Pa,Pc = 0.000000e+00 Pa)
   106  1.2832e-02  5.7927e-04  3.9230e-04  1.0673e-03  1.5343e+03  5.6584e+02  6.1376e+02  1.0560e-03 -5.9451e-04 -4.6016e-04  0:04:08  894

 reversed flow in 12 faces on pressure-outlet 8. 
Windkessel 1 :	Q = 5.635218e-07 m3 and P = 5.635218e+02 Pa
	(Pout = 0.000000e+00 Pa,Pc = 0.000000e+00 Pa)
Windkessel 2 :	Q = 4.351777e-07 m3 and P = 6.092488e+02 Pa
	(Pout = 0.000000e+00 Pa,Pc = 0.000000e+00 Pa)
   107  1.2555e-02  5.7766e-04  3.8796e-04  1.0382e-03  1.5348e+03  5.6298e+02  6.1027e+02  1.0560e-03 -5.9508e-04 -4.5955e-04  0:03:18  893

 reversed flow in 12 faces on pressure-outlet 8. 
Windkessel 1 :	Q = 5.648682e-07 m3 and P = 5.648682e+02 Pa
	(Pout = 0.000000e+00 Pa,Pc = 0.000000e+00 Pa)
Windkessel 2 :	Q = 4.376446e-07 m3 and P = 6.127025e+02 Pa
	(Pout = 0.000000e+00 Pa,Pc = 0.000000e+00 Pa)
   108  1.3428e-02  5.7658e-04  3.8521e-04  1.0562e-03  1.5336e+03  5.6352e+02  6.0947e+02  1.0560e-03 -5.9650e-04 -4.6215e-04  0:02:39  892

 reversed flow in 12 faces on pressure-outlet 8. 
Windkessel 1 :	Q = 5.645321e-07 m3 and P = 5.645321e+02 Pa
	(Pout = 0.000000e+00 Pa,Pc = 0.000000e+00 Pa)
Windkessel 2 :	Q = 4.379337e-07 m3 and P = 6.131072e+02 Pa
	(Pout = 0.000000e+00 Pa,Pc = 0.000000e+00 Pa)
   109  1.2630e-02  5.7099e-04  3.7992e-04  9.9856e-04  1.5329e+03  5.6487e+02  6.1263e+02  1.0560e-03 -5.9615e-04 -4.6246e-04  0:02:07  891

 reversed flow in 12 faces on pressure-outlet 8. 
Windkessel 1 :	Q = 5.630038e-07 m3 and P = 5.630038e+02 Pa
	(Pout = 0.000000e+00 Pa,Pc = 0.000000e+00 Pa)
Windkessel 2 :	Q = 4.359563e-07 m3 and P = 6.103388e+02 Pa
	(Pout = 0.000000e+00 Pa,Pc = 0.000000e+00 Pa)
   110  1.2391e-02  5.6150e-04  3.7288e-04  9.7432e-04  1.5337e+03  5.6453e+02  6.1305e+02  1.0560e-03 -5.9453e-04 -4.6037e-04  0:01:41  890

 reversed flow in 12 faces on pressure-outlet 8. 
  iter  continuity  x-velocity  y-velocity  z-velocity  pressure-i  pressure-o  pressure-o  flow-inlet  flow-outle  flow-outle     time/iter
Windkessel 1 :	Q = 5.634212e-07 m3 and P = 5.634212e+02 Pa
	(Pout = 0.000000e+00 Pa,Pc = 0.000000e+00 Pa)
Windkessel 2 :	Q = 4.352703e-07 m3 and P = 6.093784e+02 Pa
	(Pout = 0.000000e+00 Pa,Pc = 0.000000e+00 Pa)
   111  1.1746e-02  5.5061e-04  3.6907e-04  9.3400e-04  1.5338e+03  5.6300e+02  6.1053e+02  1.0560e-03 -5.9497e-04 -4.5965e-04  0:04:19  889

 reversed flow in 12 faces on pressure-outlet 8. 
Windkessel 1 :	Q = 5.647302e-07 m3 and P = 5.647302e+02 Pa
	(Pout = 0.000000e+00 Pa,Pc = 0.000000e+00 Pa)
Windkessel 2 :	Q = 4.381339e-07 m3 and P = 6.133874e+02 Pa
	(Pout = 0.000000e+00 Pa,Pc = 0.000000e+00 Pa)
   112  1.2083e-02  5.4740e-04  3.6685e-04  9.3211e-04  1.5332e+03  5.6342e+02  6.0959e+02  1.0560e-03 -5.9636e-04 -4.6267e-04  0:03:27  888

 reversed flow in 12 faces on pressure-outlet 8. 
Windkessel 1 :	Q = 5.637034e-07 m3 and P = 5.637034e+02 Pa
	(Pout = 0.000000e+00 Pa,Pc = 0.000000e+00 Pa)
Windkessel 2 :	Q = 4.386546e-07 m3 and P = 6.141165e+02 Pa
	(Pout = 0.000000e+00 Pa,Pc = 0.000000e+00 Pa)
   113  1.1534e-02  5.3991e-04  3.6177e-04  8.9414e-04  1.5321e+03  5.6473e+02  6.1328e+02  1.0560e-03 -5.9527e-04 -4.6322e-04  0:02:45  887

 reversed flow in 12 faces on pressure-outlet 8. 
Windkessel 1 :	Q = 5.632034e-07 m3 and P = 5.632034e+02 Pa
	(Pout = 0.000000e+00 Pa,Pc = 0.000000e+00 Pa)
Windkessel 2 :	Q = 4.364597e-07 m3 and P = 6.110435e+02 Pa
	(Pout = 0.000000e+00 Pa,Pc = 0.000000e+00 Pa)
   114  1.1877e-02  5.4009e-04  3.6102e-04  8.9347e-04  1.5330e+03  5.6370e+02  6.1401e+02  1.0560e-03 -5.9474e-04 -4.6090e-04  0:02:12  886

 reversed flow in 12 faces on pressure-outlet 8. 
Windkessel 1 :	Q = 5.634697e-07 m3 and P = 5.634697e+02 Pa
	(Pout = 0.000000e+00 Pa,Pc = 0.000000e+00 Pa)
Windkessel 2 :	Q = 4.356890e-07 m3 and P = 6.099647e+02 Pa
	(Pout = 0.000000e+00 Pa,Pc = 0.000000e+00 Pa)
   115  1.1220e-02  5.3052e-04  3.5851e-04  8.5748e-04  1.5331e+03  5.6321e+02  6.1123e+02  1.0560e-03 -5.9502e-04 -4.6009e-04  0:01:45  885

 reversed flow in 2 faces on pressure-outlet 7. 

 reversed flow in 12 faces on pressure-outlet 8. 
Windkessel 1 :	Q = 5.639757e-07 m3 and P = 5.639757e+02 Pa
	(Pout = 0.000000e+00 Pa,Pc = 0.000000e+00 Pa)
Windkessel 2 :	Q = 4.379522e-07 m3 and P = 6.131331e+02 Pa
	(Pout = 0.000000e+00 Pa,Pc = 0.000000e+00 Pa)
   116  1.0923e-02  5.1846e-04  3.5310e-04  8.3947e-04  1.5325e+03  5.6347e+02  6.1018e+02  1.0560e-03 -5.9556e-04 -4.6248e-04  0:01:24  884

 reversed flow in 6 faces on pressure-outlet 7. 

 reversed flow in 12 faces on pressure-outlet 8. 
Windkessel 1 :	Q = 5.635108e-07 m3 and P = 5.635108e+02 Pa
	(Pout = 0.000000e+00 Pa,Pc = 0.000000e+00 Pa)
Windkessel 2 :	Q = 4.383203e-07 m3 and P = 6.136485e+02 Pa
	(Pout = 0.000000e+00 Pa,Pc = 0.000000e+00 Pa)
   117  1.0657e-02  5.0761e-04  3.4681e-04  8.1923e-04  1.5321e+03  5.6396e+02  6.1308e+02  1.0560e-03 -5.9507e-04 -4.6287e-04  0:04:04  883

 reversed flow in 14 faces on pressure-outlet 7. 

 reversed flow in 12 faces on pressure-outlet 8. 
Windkessel 1 :	Q = 5.632851e-07 m3 and P = 5.632851e+02 Pa
	(Pout = 0.000000e+00 Pa,Pc = 0.000000e+00 Pa)
Windkessel 2 :	Q = 4.364948e-07 m3 and P = 6.110927e+02 Pa
	(Pout = 0.000000e+00 Pa,Pc = 0.000000e+00 Pa)
   118  1.0546e-02  4.9725e-04  3.4442e-04  8.0462e-04  1.5328e+03  5.6352e+02  6.1359e+02  1.0560e-03 -5.9483e-04 -4.6094e-04  0:03:15  882

 reversed flow in 19 faces on pressure-outlet 7. 

 reversed flow in 12 faces on pressure-outlet 8. 
Windkessel 1 :	Q = 5.636772e-07 m3 and P = 5.636772e+02 Pa
	(Pout = 0.000000e+00 Pa,Pc = 0.000000e+00 Pa)
Windkessel 2 :	Q = 4.363081e-07 m3 and P = 6.108313e+02 Pa
	(Pout = 0.000000e+00 Pa,Pc = 0.000000e+00 Pa)
   119  1.0314e-02  4.8259e-04  3.4035e-04  7.7950e-04  1.5332e+03  5.6330e+02  6.1127e+02  1.0560e-03 -5.9524e-04 -4.6074e-04  0:02:36  881

 reversed flow in 21 faces on pressure-outlet 7. 

 reversed flow in 12 faces on pressure-outlet 8. 
Windkessel 1 :	Q = 5.638848e-07 m3 and P = 5.638848e+02 Pa
	(Pout = 0.000000e+00 Pa,Pc = 0.000000e+00 Pa)
Windkessel 2 :	Q = 4.382657e-07 m3 and P = 6.135720e+02 Pa
	(Pout = 0.000000e+00 Pa,Pc = 0.000000e+00 Pa)
   120  1.0161e-02  4.7119e-04  3.3503e-04  7.6782e-04  1.5326e+03  5.6367e+02  6.1099e+02  1.0560e-03 -5.9546e-04 -4.6281e-04  0:02:04  880

 reversed flow in 21 faces on pressure-outlet 7. 

 reversed flow in 12 faces on pressure-outlet 8. 
Windkessel 1 :	Q = 5.637901e-07 m3 and P = 5.637901e+02 Pa
	(Pout = 0.000000e+00 Pa,Pc = 0.000000e+00 Pa)
Windkessel 2 :	Q = 4.384528e-07 m3 and P = 6.138339e+02 Pa
	(Pout = 0.000000e+00 Pa,Pc = 0.000000e+00 Pa)
   121  9.8240e-03  4.5369e-04  3.2870e-04  7.4850e-04  1.5321e+03  5.6387e+02  6.1351e+02  1.0560e-03 -5.9536e-04 -4.6301e-04  0:01:39  879

 reversed flow in 22 faces on pressure-outlet 7. 

 reversed flow in 12 faces on pressure-outlet 8. 
  iter  continuity  x-velocity  y-velocity  z-velocity  pressure-i  pressure-o  pressure-o  flow-inlet  flow-outle  flow-outle     time/iter
Windkessel 1 :	Q = 5.632445e-07 m3 and P = 5.632445e+02 Pa
	(Pout = 0.000000e+00 Pa,Pc = 0.000000e+00 Pa)
Windkessel 2 :	Q = 4.366547e-07 m3 and P = 6.113166e+02 Pa
	(Pout = 0.000000e+00 Pa,Pc = 0.000000e+00 Pa)
   122  9.9432e-03  4.4921e-04  3.2382e-04  7.4916e-04  1.5324e+03  5.6379e+02  6.1379e+02  1.0560e-03 -5.9479e-04 -4.6111e-04  0:04:15  878

 reversed flow in 20 faces on pressure-outlet 7. 

 reversed flow in 12 faces on pressure-outlet 8. 
Windkessel 1 :	Q = 5.633430e-07 m3 and P = 5.633430e+02 Pa
	(Pout = 0.000000e+00 Pa,Pc = 0.000000e+00 Pa)
Windkessel 2 :	Q = 4.363573e-07 m3 and P = 6.109002e+02 Pa
	(Pout = 0.000000e+00 Pa,Pc = 0.000000e+00 Pa)
   123  9.5448e-03  4.3270e-04  3.1846e-04  7.2718e-04  1.5325e+03  5.6326e+02  6.1150e+02  1.0560e-03 -5.9489e-04 -4.6079e-04  0:03:24  877

 reversed flow in 16 faces on pressure-outlet 7. 

 reversed flow in 12 faces on pressure-outlet 8. 
Windkessel 1 :	Q = 5.640735e-07 m3 and P = 5.640735e+02 Pa
	(Pout = 0.000000e+00 Pa,Pc = 0.000000e+00 Pa)
Windkessel 2 :	Q = 4.381827e-07 m3 and P = 6.134558e+02 Pa
	(Pout = 0.000000e+00 Pa,Pc = 0.000000e+00 Pa)
   124  9.5902e-03  4.2224e-04  3.1185e-04  7.2948e-04  1.5317e+03  5.6335e+02  6.1107e+02  1.0560e-03 -5.9566e-04 -4.6272e-04  0:02:43  876

 reversed flow in 12 faces on pressure-outlet 7. 

 reversed flow in 12 faces on pressure-outlet 8. 
Windkessel 1 :	Q = 5.643153e-07 m3 and P = 5.643153e+02 Pa
	(Pout = 0.000000e+00 Pa,Pc = 0.000000e+00 Pa)
Windkessel 2 :	Q = 4.384937e-07 m3 and P = 6.138912e+02 Pa
	(Pout = 0.000000e+00 Pa,Pc = 0.000000e+00 Pa)
   125  9.3104e-03  4.0714e-04  3.0450e-04  7.0984e-04  1.5312e+03  5.6407e+02  6.1342e+02  1.0560e-03 -5.9592e-04 -4.6305e-04  0:02:10  875

 reversed flow in 8 faces on pressure-outlet 7. 

 reversed flow in 12 faces on pressure-outlet 8. 
Windkessel 1 :	Q = 5.626834e-07 m3 and P = 5.626834e+02 Pa
	(Pout = 0.000000e+00 Pa,Pc = 0.000000e+00 Pa)
Windkessel 2 :	Q = 4.368160e-07 m3 and P = 6.115424e+02 Pa
	(Pout = 0.000000e+00 Pa,Pc = 0.000000e+00 Pa)
   126  9.3282e-03  3.9927e-04  2.9757e-04  7.1021e-04  1.5314e+03  5.6431e+02  6.1385e+02  1.0560e-03 -5.9419e-04 -4.6128e-04  0:01:44  874

 reversed flow in 4 faces on pressure-outlet 7. 

 reversed flow in 12 faces on pressure-outlet 8. 
Windkessel 1 :	Q = 5.627065e-07 m3 and P = 5.627065e+02 Pa
	(Pout = 0.000000e+00 Pa,Pc = 0.000000e+00 Pa)
Windkessel 2 :	Q = 4.366651e-07 m3 and P = 6.113311e+02 Pa
	(Pout = 0.000000e+00 Pa,Pc = 0.000000e+00 Pa)
   127  9.0733e-03  3.8550e-04  2.9049e-04  6.9009e-04  1.5316e+03  5.6268e+02  6.1172e+02  1.0560e-03 -5.9422e-04 -4.6112e-04  0:01:23  873

 reversed flow in 12 faces on pressure-outlet 8. 
Windkessel 1 :	Q = 5.640413e-07 m3 and P = 5.640413e+02 Pa
	(Pout = 0.000000e+00 Pa,Pc = 0.000000e+00 Pa)
Windkessel 2 :	Q = 4.381779e-07 m3 and P = 6.134491e+02 Pa
	(Pout = 0.000000e+00 Pa,Pc = 0.000000e+00 Pa)
   128  9.1338e-03  3.7609e-04  2.8290e-04  6.9023e-04  1.5307e+03  5.6271e+02  6.1148e+02  1.0560e-03 -5.9563e-04 -4.6272e-04  0:04:01  872

 reversed flow in 13 faces on pressure-outlet 8. 
Windkessel 1 :	Q = 5.638657e-07 m3 and P = 5.638657e+02 Pa
	(Pout = 0.000000e+00 Pa,Pc = 0.000000e+00 Pa)
Windkessel 2 :	Q = 4.381882e-07 m3 and P = 6.134635e+02 Pa
	(Pout = 0.000000e+00 Pa,Pc = 0.000000e+00 Pa)
   129  8.5466e-03  3.6183e-04  2.7475e-04  6.5606e-04  1.5301e+03  5.6404e+02  6.1342e+02  1.0560e-03 -5.9544e-04 -4.6273e-04  0:03:12  871

 reversed flow in 13 faces on pressure-outlet 8. 
Windkessel 1 :	Q = 5.622022e-07 m3 and P = 5.622022e+02 Pa
	(Pout = 0.000000e+00 Pa,Pc = 0.000000e+00 Pa)
Windkessel 2 :	Q = 4.372194e-07 m3 and P = 6.121072e+02 Pa
	(Pout = 0.000000e+00 Pa,Pc = 0.000000e+00 Pa)
   130  8.5102e-03  3.5697e-04  2.6632e-04  6.4895e-04  1.5304e+03  5.6387e+02  6.1346e+02  1.0560e-03 -5.9369e-04 -4.6170e-04  0:02:34  870

 reversed flow in 1 faces on pressure-outlet 7. 

 reversed flow in 13 faces on pressure-outlet 8. 
Windkessel 1 :	Q = 5.618950e-07 m3 and P = 5.618950e+02 Pa
	(Pout = 0.000000e+00 Pa,Pc = 0.000000e+00 Pa)
Windkessel 2 :	Q = 4.370064e-07 m3 and P = 6.118090e+02 Pa
	(Pout = 0.000000e+00 Pa,Pc = 0.000000e+00 Pa)
   131  7.8205e-03  3.4451e-04  2.5788e-04  6.1569e-04  1.5305e+03  5.6221e+02  6.1223e+02  1.0560e-03 -5.9336e-04 -4.6148e-04  0:02:03  869

 reversed flow in 3 faces on pressure-outlet 7. 

 reversed flow in 13 faces on pressure-outlet 8. 
Windkessel 1 :	Q = 5.628337e-07 m3 and P = 5.628337e+02 Pa
	(Pout = 0.000000e+00 Pa,Pc = 0.000000e+00 Pa)
Windkessel 2 :	Q = 4.382918e-07 m3 and P = 6.136085e+02 Pa
	(Pout = 0.000000e+00 Pa,Pc = 0.000000e+00 Pa)
   132  8.0255e-03  3.3580e-04  2.4975e-04  6.1295e-04  1.5297e+03  5.6190e+02  6.1193e+02  1.0560e-03 -5.9435e-04 -4.6284e-04  0:01:38  868

 reversed flow in 3 faces on pressure-outlet 7. 

 reversed flow in 13 faces on pressure-outlet 8. 
  iter  continuity  x-velocity  y-velocity  z-velocity  pressure-i  pressure-o  pressure-o  flow-inlet  flow-outle  flow-outle     time/iter
Windkessel 1 :	Q = 5.628097e-07 m3 and P = 5.628097e+02 Pa
	(Pout = 0.000000e+00 Pa,Pc = 0.000000e+00 Pa)
Windkessel 2 :	Q = 4.383818e-07 m3 and P = 6.137346e+02 Pa
	(Pout = 0.000000e+00 Pa,Pc = 0.000000e+00 Pa)
   133  7.6852e-03  3.2586e-04  2.4213e-04  5.8748e-04  1.5292e+03  5.6283e+02  6.1355e+02  1.0560e-03 -5.9433e-04 -4.6293e-04  0:01:18  867

 reversed flow in 4 faces on pressure-outlet 7. 

 reversed flow in 13 faces on pressure-outlet 8. 
Windkessel 1 :	Q = 5.623517e-07 m3 and P = 5.623517e+02 Pa
	(Pout = 0.000000e+00 Pa,Pc = 0.000000e+00 Pa)
Windkessel 2 :	Q = 4.366903e-07 m3 and P = 6.113664e+02 Pa
	(Pout = 0.000000e+00 Pa,Pc = 0.000000e+00 Pa)
   134  7.3071e-03  3.2048e-04  2.3482e-04  5.7164e-04  1.5295e+03  5.6281e+02  6.1373e+02  1.0560e-03 -5.9384e-04 -4.6114e-04  0:03:56  866

 reversed flow in 6 faces on pressure-outlet 7. 

 reversed flow in 14 faces on pressure-outlet 8. 
Windkessel 1 :	Q = 5.618701e-07 m3 and P = 5.618701e+02 Pa
	(Pout = 0.000000e+00 Pa,Pc = 0.000000e+00 Pa)
Windkessel 2 :	Q = 4.363890e-07 m3 and P = 6.109445e+02 Pa
	(Pout = 0.000000e+00 Pa,Pc = 0.000000e+00 Pa)
   135  6.9550e-03  3.0831e-04  2.2840e-04  5.4783e-04  1.5297e+03  5.6236e+02  6.1158e+02  1.0560e-03 -5.9333e-04 -4.6083e-04  0:03:08  865

 reversed flow in 11 faces on pressure-outlet 7. 

 reversed flow in 14 faces on pressure-outlet 8. 
Windkessel 1 :	Q = 5.620609e-07 m3 and P = 5.620609e+02 Pa
	(Pout = 0.000000e+00 Pa,Pc = 0.000000e+00 Pa)
Windkessel 2 :	Q = 4.380298e-07 m3 and P = 6.132417e+02 Pa
	(Pout = 0.000000e+00 Pa,Pc = 0.000000e+00 Pa)
   136  7.0728e-03  3.0478e-04  2.2263e-04  5.4493e-04  1.5293e+03  5.6190e+02  6.1114e+02  1.0560e-03 -5.9354e-04 -4.6256e-04  0:02:31  864

 reversed flow in 20 faces on pressure-outlet 7. 

 reversed flow in 14 faces on pressure-outlet 8. 
Windkessel 1 :	Q = 5.620292e-07 m3 and P = 5.620292e+02 Pa
	(Pout = 0.000000e+00 Pa,Pc = 0.000000e+00 Pa)
Windkessel 2 :	Q = 4.383647e-07 m3 and P = 6.137105e+02 Pa
	(Pout = 0.000000e+00 Pa,Pc = 0.000000e+00 Pa)
   137  7.0083e-03  2.9226e-04  2.1623e-04  5.2574e-04  1.5289e+03  5.6207e+02  6.1319e+02  1.0560e-03 -5.9350e-04 -4.6291e-04  0:02:00  863

 reversed flow in 28 faces on pressure-outlet 7. 

 reversed flow in 14 faces on pressure-outlet 8. 
Windkessel 1 :	Q = 5.626302e-07 m3 and P = 5.626302e+02 Pa
	(Pout = 0.000000e+00 Pa,Pc = 0.000000e+00 Pa)
Windkessel 2 :	Q = 4.376735e-07 m3 and P = 6.127429e+02 Pa
	(Pout = 0.000000e+00 Pa,Pc = 0.000000e+00 Pa)
   138  6.5943e-03  2.8258e-04  2.1061e-04  5.0981e-04  1.5293e+03  5.6204e+02  6.1365e+02  1.0560e-03 -5.9414e-04 -4.6218e-04  0:01:36  862

 reversed flow in 41 faces on pressure-outlet 7. 

 reversed flow in 14 faces on pressure-outlet 8. 
Windkessel 1 :	Q = 5.627773e-07 m3 and P = 5.627773e+02 Pa
	(Pout = 0.000000e+00 Pa,Pc = 0.000000e+00 Pa)
Windkessel 2 :	Q = 4.372607e-07 m3 and P = 6.121649e+02 Pa
	(Pout = 0.000000e+00 Pa,Pc = 0.000000e+00 Pa)
   139  6.3731e-03  2.7062e-04  2.0562e-04  4.8969e-04  1.5295e+03  5.6257e+02  6.1281e+02  1.0560e-03 -5.9429e-04 -4.6175e-04  0:04:09  861

 reversed flow in 47 faces on pressure-outlet 7. 

 reversed flow in 14 faces on pressure-outlet 8. 
Windkessel 1 :	Q = 5.614094e-07 m3 and P = 5.614094e+02 Pa
	(Pout = 0.000000e+00 Pa,Pc = 0.000000e+00 Pa)
Windkessel 2 :	Q = 4.379854e-07 m3 and P = 6.131795e+02 Pa
	(Pout = 0.000000e+00 Pa,Pc = 0.000000e+00 Pa)
   140  5.9875e-03  2.5478e-04  2.0143e-04  4.6756e-04  1.5295e+03  5.6271e+02  6.1228e+02  1.0560e-03 -5.9285e-04 -4.6251e-04  0:03:19  860

 reversed flow in 54 faces on pressure-outlet 7. 

 reversed flow in 14 faces on pressure-outlet 8. 
Windkessel 1 :	Q = 5.615036e-07 m3 and P = 5.615036e+02 Pa
	(Pout = 0.000000e+00 Pa,Pc = 0.000000e+00 Pa)
Windkessel 2 :	Q = 4.383169e-07 m3 and P = 6.136436e+02 Pa
	(Pout = 0.000000e+00 Pa,Pc = 0.000000e+00 Pa)
   141  5.9600e-03  2.4795e-04  1.9402e-04  4.5783e-04  1.5295e+03  5.6156e+02  6.1316e+02  1.0560e-03 -5.9295e-04 -4.6286e-04  0:02:39  859

 reversed flow in 58 faces on pressure-outlet 7. 

 reversed flow in 15 faces on pressure-outlet 8. 
Windkessel 1 :	Q = 5.626906e-07 m3 and P = 5.626906e+02 Pa
	(Pout = 0.000000e+00 Pa,Pc = 0.000000e+00 Pa)
Windkessel 2 :	Q = 4.377890e-07 m3 and P = 6.129046e+02 Pa
	(Pout = 0.000000e+00 Pa,Pc = 0.000000e+00 Pa)
   142  6.0274e-03  2.3749e-04  1.8752e-04  4.5435e-04  1.5294e+03  5.6159e+02  6.1359e+02  1.0560e-03 -5.9420e-04 -4.6231e-04  0:02:07  858

 reversed flow in 60 faces on pressure-outlet 7. 

 reversed flow in 15 faces on pressure-outlet 8. 
Windkessel 1 :	Q = 5.629497e-07 m3 and P = 5.629497e+02 Pa
	(Pout = 0.000000e+00 Pa,Pc = 0.000000e+00 Pa)
Windkessel 2 :	Q = 4.376423e-07 m3 and P = 6.126992e+02 Pa
	(Pout = 0.000000e+00 Pa,Pc = 0.000000e+00 Pa)
   143  5.7807e-03  2.3189e-04  1.8137e-04  4.3740e-04  1.5295e+03  5.6258e+02  6.1295e+02  1.0560e-03 -5.9447e-04 -4.6215e-04  0:01:42  857

 reversed flow in 60 faces on pressure-outlet 7. 

 reversed flow in 15 faces on pressure-outlet 8. 
  iter  continuity  x-velocity  y-velocity  z-velocity  pressure-i  pressure-o  pressure-o  flow-inlet  flow-outle  flow-outle     time/iter
Windkessel 1 :	Q = 5.611768e-07 m3 and P = 5.611768e+02 Pa
	(Pout = 0.000000e+00 Pa,Pc = 0.000000e+00 Pa)
Windkessel 2 :	Q = 4.382679e-07 m3 and P = 6.135751e+02 Pa
	(Pout = 0.000000e+00 Pa,Pc = 0.000000e+00 Pa)
   144  5.6138e-03  2.2384e-04  1.7543e-04  4.2601e-04  1.5296e+03  5.6283e+02  6.1276e+02  1.0560e-03 -5.9260e-04 -4.6281e-04  0:04:12  856

 reversed flow in 62 faces on pressure-outlet 7. 

 reversed flow in 15 faces on pressure-outlet 8. 
Windkessel 1 :	Q = 5.612966e-07 m3 and P = 5.612966e+02 Pa
	(Pout = 0.000000e+00 Pa,Pc = 0.000000e+00 Pa)
Windkessel 2 :	Q = 4.384096e-07 m3 and P = 6.137734e+02 Pa
	(Pout = 0.000000e+00 Pa,Pc = 0.000000e+00 Pa)
   145  5.4882e-03  2.1904e-04  1.6886e-04  4.1769e-04  1.5298e+03  5.6138e+02  6.1353e+02  1.0560e-03 -5.9273e-04 -4.6296e-04  0:03:22  855

 reversed flow in 64 faces on pressure-outlet 7. 

 reversed flow in 15 faces on pressure-outlet 8. 
Windkessel 1 :	Q = 5.627154e-07 m3 and P = 5.627154e+02 Pa
	(Pout = 0.000000e+00 Pa,Pc = 0.000000e+00 Pa)
Windkessel 2 :	Q = 4.382774e-07 m3 and P = 6.135884e+02 Pa
	(Pout = 0.000000e+00 Pa,Pc = 0.000000e+00 Pa)
   146  5.6752e-03  2.1473e-04  1.6284e-04  4.2429e-04  1.5297e+03  5.6142e+02  6.1373e+02  1.0560e-03 -5.9423e-04 -4.6282e-04  0:02:41  854

 reversed flow in 63 faces on pressure-outlet 7. 

 reversed flow in 15 faces on pressure-outlet 8. 
Windkessel 1 :	Q = 5.631022e-07 m3 and P = 5.631022e+02 Pa
	(Pout = 0.000000e+00 Pa,Pc = 0.000000e+00 Pa)
Windkessel 2 :	Q = 4.379951e-07 m3 and P = 6.131931e+02 Pa
	(Pout = 0.000000e+00 Pa,Pc = 0.000000e+00 Pa)
   147  5.3507e-03  2.0855e-04  1.5770e-04  4.0601e-04  1.5296e+03  5.6258e+02  6.1358e+02  1.0560e-03 -5.9464e-04 -4.6252e-04  0:02:09  853

 reversed flow in 62 faces on pressure-outlet 7. 

 reversed flow in 15 faces on pressure-outlet 8. 
Windkessel 1 :	Q = 5.614674e-07 m3 and P = 5.614674e+02 Pa
	(Pout = 0.000000e+00 Pa,Pc = 0.000000e+00 Pa)
Windkessel 2 :	Q = 4.378917e-07 m3 and P = 6.130484e+02 Pa
	(Pout = 0.000000e+00 Pa,Pc = 0.000000e+00 Pa)
   148  5.3315e-03  2.0235e-04  1.5215e-04  3.9850e-04  1.5295e+03  5.6295e+02  6.1323e+02  1.0560e-03 -5.9291e-04 -4.6241e-04  0:01:43  852

 reversed flow in 62 faces on pressure-outlet 7. 

 reversed flow in 15 faces on pressure-outlet 8. 
Windkessel 1 :	Q = 5.613032e-07 m3 and P = 5.613032e+02 Pa
	(Pout = 0.000000e+00 Pa,Pc = 0.000000e+00 Pa)
Windkessel 2 :	Q = 4.381828e-07 m3 and P = 6.134559e+02 Pa
	(Pout = 0.000000e+00 Pa,Pc = 0.000000e+00 Pa)
   149  5.3128e-03  2.0084e-04  1.4710e-04  3.9524e-04  1.5298e+03  5.6161e+02  6.1309e+02  1.0560e-03 -5.9274e-04 -4.6272e-04  0:01:22  851

 reversed flow in 58 faces on pressure-outlet 7. 

 reversed flow in 15 faces on pressure-outlet 8. 
Windkessel 1 :	Q = 5.624073e-07 m3 and P = 5.624073e+02 Pa
	(Pout = 0.000000e+00 Pa,Pc = 0.000000e+00 Pa)
Windkessel 2 :	Q = 4.385037e-07 m3 and P = 6.139052e+02 Pa
	(Pout = 0.000000e+00 Pa,Pc = 0.000000e+00 Pa)
   150  5.2469e-03  1.9558e-04  1.4212e-04  3.9066e-04  1.5295e+03  5.6142e+02  6.1345e+02  1.0560e-03 -5.9390e-04 -4.6306e-04  0:01:06  850

 reversed flow in 59 faces on pressure-outlet 7. 

 reversed flow in 15 faces on pressure-outlet 8. 
Windkessel 1 :	Q = 5.626716e-07 m3 and P = 5.626716e+02 Pa
	(Pout = 0.000000e+00 Pa,Pc = 0.000000e+00 Pa)
Windkessel 2 :	Q = 4.384767e-07 m3 and P = 6.138674e+02 Pa
	(Pout = 0.000000e+00 Pa,Pc = 0.000000e+00 Pa)
   151  5.0506e-03  1.8983e-04  1.3843e-04  3.7842e-04  1.5294e+03  5.6233e+02  6.1386e+02  1.0560e-03 -5.9418e-04 -4.6303e-04  0:03:42  849

 reversed flow in 58 faces on pressure-outlet 7. 

 reversed flow in 15 faces on pressure-outlet 8. 
Windkessel 1 :	Q = 5.618166e-07 m3 and P = 5.618166e+02 Pa
	(Pout = 0.000000e+00 Pa,Pc = 0.000000e+00 Pa)
Windkessel 2 :	Q = 4.378771e-07 m3 and P = 6.130280e+02 Pa
	(Pout = 0.000000e+00 Pa,Pc = 0.000000e+00 Pa)
   152  5.0060e-03  1.8821e-04  1.3513e-04  3.7222e-04  1.5293e+03  5.6258e+02  6.1384e+02  1.0560e-03 -5.9328e-04 -4.6240e-04  0:02:58  848

 reversed flow in 59 faces on pressure-outlet 7. 

 reversed flow in 15 faces on pressure-outlet 8. 
Windkessel 1 :	Q = 5.616290e-07 m3 and P = 5.616290e+02 Pa
	(Pout = 0.000000e+00 Pa,Pc = 0.000000e+00 Pa)
Windkessel 2 :	Q = 4.379592e-07 m3 and P = 6.131428e+02 Pa
	(Pout = 0.000000e+00 Pa,Pc = 0.000000e+00 Pa)
   153  4.8442e-03  1.8166e-04  1.3104e-04  3.6157e-04  1.5295e+03  5.6188e+02  6.1309e+02  1.0560e-03 -5.9308e-04 -4.6248e-04  0:02:22  847

 reversed flow in 55 faces on pressure-outlet 7. 

 reversed flow in 15 faces on pressure-outlet 8. 
Windkessel 1 :	Q = 5.621589e-07 m3 and P = 5.621589e+02 Pa
	(Pout = 0.000000e+00 Pa,Pc = 0.000000e+00 Pa)
Windkessel 2 :	Q = 4.384494e-07 m3 and P = 6.138291e+02 Pa
	(Pout = 0.000000e+00 Pa,Pc = 0.000000e+00 Pa)
   154  4.7603e-03  1.7986e-04  1.2756e-04  3.5689e-04  1.5292e+03  5.6169e+02  6.1318e+02  1.0560e-03 -5.9364e-04 -4.6300e-04  0:01:53  846

 reversed flow in 55 faces on pressure-outlet 7. 

 reversed flow in 15 faces on pressure-outlet 8. 
  iter  continuity  x-velocity  y-velocity  z-velocity  pressure-i  pressure-o  pressure-o  flow-inlet  flow-outle  flow-outle     time/iter
Windkessel 1 :	Q = 5.622308e-07 m3 and P = 5.622308e+02 Pa
	(Pout = 0.000000e+00 Pa,Pc = 0.000000e+00 Pa)
Windkessel 2 :	Q = 4.384428e-07 m3 and P = 6.138199e+02 Pa
	(Pout = 0.000000e+00 Pa,Pc = 0.000000e+00 Pa)
   155  4.5879e-03  1.7135e-04  1.2384e-04  3.4326e-04  1.5290e+03  5.6213e+02  6.1378e+02  1.0560e-03 -5.9372e-04 -4.6300e-04  0:01:31  845

 reversed flow in 54 faces on pressure-outlet 7. 

 reversed flow in 15 faces on pressure-outlet 8. 
Windkessel 1 :	Q = 5.619594e-07 m3 and P = 5.619594e+02 Pa
	(Pout = 0.000000e+00 Pa,Pc = 0.000000e+00 Pa)
Windkessel 2 :	Q = 4.381786e-07 m3 and P = 6.134500e+02 Pa
	(Pout = 0.000000e+00 Pa,Pc = 0.000000e+00 Pa)
   156  4.4128e-03  1.6839e-04  1.2102e-04  3.3693e-04  1.5291e+03  5.6220e+02  6.1379e+02  1.0560e-03 -5.9343e-04 -4.6272e-04  0:01:12  844

 reversed flow in 53 faces on pressure-outlet 7. 

 reversed flow in 15 faces on pressure-outlet 8. 
Windkessel 1 :	Q = 5.618614e-07 m3 and P = 5.618614e+02 Pa
	(Pout = 0.000000e+00 Pa,Pc = 0.000000e+00 Pa)
Windkessel 2 :	Q = 4.381042e-07 m3 and P = 6.133459e+02 Pa
	(Pout = 0.000000e+00 Pa,Pc = 0.000000e+00 Pa)
   157  4.2620e-03  1.6321e-04  1.1752e-04  3.2536e-04  1.5291e+03  5.6198e+02  6.1347e+02  1.0560e-03 -5.9333e-04 -4.6264e-04  0:03:46  843

 reversed flow in 53 faces on pressure-outlet 7. 

 reversed flow in 15 faces on pressure-outlet 8. 
Windkessel 1 :	Q = 5.620340e-07 m3 and P = 5.620340e+02 Pa
	(Pout = 0.000000e+00 Pa,Pc = 0.000000e+00 Pa)
Windkessel 2 :	Q = 4.385116e-07 m3 and P = 6.139162e+02 Pa
	(Pout = 0.000000e+00 Pa,Pc = 0.000000e+00 Pa)
   158  4.1174e-03  1.5928e-04  1.1416e-04  3.1676e-04  1.5289e+03  5.6189e+02  6.1337e+02  1.0560e-03 -5.9351e-04 -4.6307e-04  0:03:01  842

 reversed flow in 53 faces on pressure-outlet 7. 

 reversed flow in 15 faces on pressure-outlet 8. 
Windkessel 1 :	Q = 5.619928e-07 m3 and P = 5.619928e+02 Pa
	(Pout = 0.000000e+00 Pa,Pc = 0.000000e+00 Pa)
Windkessel 2 :	Q = 4.386196e-07 m3 and P = 6.140675e+02 Pa
	(Pout = 0.000000e+00 Pa,Pc = 0.000000e+00 Pa)
   159  4.0638e-03  1.5491e-04  1.1049e-04  3.0858e-04  1.5288e+03  5.6203e+02  6.1387e+02  1.0560e-03 -5.9346e-04 -4.6318e-04  0:02:25  841

 reversed flow in 53 faces on pressure-outlet 7. 

 reversed flow in 15 faces on pressure-outlet 8. 
Windkessel 1 :	Q = 5.619852e-07 m3 and P = 5.619852e+02 Pa
	(Pout = 0.000000e+00 Pa,Pc = 0.000000e+00 Pa)
Windkessel 2 :	Q = 4.383891e-07 m3 and P = 6.137447e+02 Pa
	(Pout = 0.000000e+00 Pa,Pc = 0.000000e+00 Pa)
   160  4.0035e-03  1.5261e-04  1.0786e-04  3.0326e-04  1.5288e+03  5.6200e+02  6.1402e+02  1.0560e-03 -5.9346e-04 -4.6294e-04  0:01:56  840

 reversed flow in 52 faces on pressure-outlet 7. 

 reversed flow in 15 faces on pressure-outlet 8. 
Windkessel 1 :	Q = 5.620308e-07 m3 and P = 5.620308e+02 Pa
	(Pout = 0.000000e+00 Pa,Pc = 0.000000e+00 Pa)
Windkessel 2 :	Q = 4.383427e-07 m3 and P = 6.136798e+02 Pa
	(Pout = 0.000000e+00 Pa,Pc = 0.000000e+00 Pa)
   161  3.9245e-03  1.4958e-04  1.0491e-04  2.9544e-04  1.5288e+03  5.6199e+02  6.1374e+02  1.0560e-03 -5.9350e-04 -4.6289e-04  0:01:32  839

 reversed flow in 52 faces on pressure-outlet 7. 

 reversed flow in 15 faces on pressure-outlet 8. 
Windkessel 1 :	Q = 5.619282e-07 m3 and P = 5.619282e+02 Pa
	(Pout = 0.000000e+00 Pa,Pc = 0.000000e+00 Pa)
Windkessel 2 :	Q = 4.384124e-07 m3 and P = 6.137774e+02 Pa
	(Pout = 0.000000e+00 Pa,Pc = 0.000000e+00 Pa)
   162  3.7595e-03  1.4566e-04  1.0199e-04  2.8695e-04  1.5287e+03  5.6203e+02  6.1368e+02  1.0560e-03 -5.9340e-04 -4.6296e-04  0:01:14  838

 reversed flow in 52 faces on pressure-outlet 7. 

 reversed flow in 15 faces on pressure-outlet 8. 
Windkessel 1 :	Q = 5.618457e-07 m3 and P = 5.618457e+02 Pa
	(Pout = 0.000000e+00 Pa,Pc = 0.000000e+00 Pa)
Windkessel 2 :	Q = 4.384956e-07 m3 and P = 6.138938e+02 Pa
	(Pout = 0.000000e+00 Pa,Pc = 0.000000e+00 Pa)
   163  3.6687e-03  1.4226e-04  9.8297e-05  2.8235e-04  1.5286e+03  5.6194e+02  6.1377e+02  1.0560e-03 -5.9331e-04 -4.6305e-04  0:03:46  837

 reversed flow in 52 faces on pressure-outlet 7. 

 reversed flow in 15 faces on pressure-outlet 8. 
Windkessel 1 :	Q = 5.618817e-07 m3 and P = 5.618817e+02 Pa
	(Pout = 0.000000e+00 Pa,Pc = 0.000000e+00 Pa)
Windkessel 2 :	Q = 4.384783e-07 m3 and P = 6.138696e+02 Pa
	(Pout = 0.000000e+00 Pa,Pc = 0.000000e+00 Pa)
   164  3.5975e-03  1.3887e-04  9.5083e-05  2.7635e-04  1.5286e+03  5.6187e+02  6.1387e+02  1.0560e-03 -5.9335e-04 -4.6303e-04  0:03:01  836

 reversed flow in 52 faces on pressure-outlet 7. 

 reversed flow in 15 faces on pressure-outlet 8. 
Windkessel 1 :	Q = 5.619171e-07 m3 and P = 5.619171e+02 Pa
	(Pout = 0.000000e+00 Pa,Pc = 0.000000e+00 Pa)
Windkessel 2 :	Q = 4.384484e-07 m3 and P = 6.138277e+02 Pa
	(Pout = 0.000000e+00 Pa,Pc = 0.000000e+00 Pa)
   165  3.5763e-03  1.3645e-04  9.2244e-05  2.7298e-04  1.5285e+03  5.6189e+02  6.1386e+02  1.0560e-03 -5.9338e-04 -4.6300e-04  0:02:25  835

 reversed flow in 52 faces on pressure-outlet 7. 

 reversed flow in 15 faces on pressure-outlet 8. 
  iter  continuity  x-velocity  y-velocity  z-velocity  pressure-i  pressure-o  pressure-o  flow-inlet  flow-outle  flow-outle     time/iter
Windkessel 1 :	Q = 5.618999e-07 m3 and P = 5.618999e+02 Pa
	(Pout = 0.000000e+00 Pa,Pc = 0.000000e+00 Pa)
Windkessel 2 :	Q = 4.384857e-07 m3 and P = 6.138800e+02 Pa
	(Pout = 0.000000e+00 Pa,Pc = 0.000000e+00 Pa)
   166  3.4939e-03  1.3359e-04  8.9756e-05  2.6818e-04  1.5285e+03  5.6192e+02  6.1382e+02  1.0560e-03 -5.9337e-04 -4.6304e-04  0:01:55  834

 reversed flow in 52 faces on pressure-outlet 7. 

 reversed flow in 15 faces on pressure-outlet 8. 
Windkessel 1 :	Q = 5.618540e-07 m3 and P = 5.618540e+02 Pa
	(Pout = 0.000000e+00 Pa,Pc = 0.000000e+00 Pa)
Windkessel 2 :	Q = 4.385339e-07 m3 and P = 6.139474e+02 Pa
	(Pout = 0.000000e+00 Pa,Pc = 0.000000e+00 Pa)
   167  3.4244e-03  1.3128e-04  8.6982e-05  2.6272e-04  1.5285e+03  5.6190e+02  6.1387e+02  1.0560e-03 -5.9332e-04 -4.6309e-04  0:01:32  833

 reversed flow in 51 faces on pressure-outlet 7. 

 reversed flow in 15 faces on pressure-outlet 8. 
Windkessel 1 :	Q = 5.617745e-07 m3 and P = 5.617745e+02 Pa
	(Pout = 0.000000e+00 Pa,Pc = 0.000000e+00 Pa)
Windkessel 2 :	Q = 4.385302e-07 m3 and P = 6.139423e+02 Pa
	(Pout = 0.000000e+00 Pa,Pc = 0.000000e+00 Pa)
   168  3.3588e-03  1.2840e-04  8.4796e-05  2.5790e-04  1.5284e+03  5.6186e+02  6.1393e+02  1.0560e-03 -5.9323e-04 -4.6309e-04  0:04:00  832

 reversed flow in 50 faces on pressure-outlet 7. 

 reversed flow in 15 faces on pressure-outlet 8. 
Windkessel 1 :	Q = 5.617680e-07 m3 and P = 5.617680e+02 Pa
	(Pout = 0.000000e+00 Pa,Pc = 0.000000e+00 Pa)
Windkessel 2 :	Q = 4.386089e-07 m3 and P = 6.140524e+02 Pa
	(Pout = 0.000000e+00 Pa,Pc = 0.000000e+00 Pa)
   169  3.3032e-03  1.2547e-04  8.2693e-05  2.5357e-04  1.5284e+03  5.6179e+02  6.1393e+02  1.0560e-03 -5.9323e-04 -4.6317e-04  0:03:12  831

 reversed flow in 49 faces on pressure-outlet 7. 

 reversed flow in 15 faces on pressure-outlet 8. 
Windkessel 1 :	Q = 5.617988e-07 m3 and P = 5.617988e+02 Pa
	(Pout = 0.000000e+00 Pa,Pc = 0.000000e+00 Pa)
Windkessel 2 :	Q = 4.386353e-07 m3 and P = 6.140895e+02 Pa
	(Pout = 0.000000e+00 Pa,Pc = 0.000000e+00 Pa)
   170  3.2261e-03  1.2238e-04  8.1005e-05  2.4563e-04  1.5283e+03  5.6178e+02  6.1403e+02  1.0560e-03 -5.9326e-04 -4.6320e-04  0:02:33  830

 reversed flow in 49 faces on pressure-outlet 7. 

 reversed flow in 15 faces on pressure-outlet 8. 
Windkessel 1 :	Q = 5.617704e-07 m3 and P = 5.617704e+02 Pa
	(Pout = 0.000000e+00 Pa,Pc = 0.000000e+00 Pa)
Windkessel 2 :	Q = 4.385909e-07 m3 and P = 6.140272e+02 Pa
	(Pout = 0.000000e+00 Pa,Pc = 0.000000e+00 Pa)
   171  3.1352e-03  1.1897e-04  7.8958e-05  2.3851e-04  1.5283e+03  5.6180e+02  6.1407e+02  1.0560e-03 -5.9323e-04 -4.6315e-04  0:02:03  829

 reversed flow in 48 faces on pressure-outlet 7. 

 reversed flow in 15 faces on pressure-outlet 8. 
Windkessel 1 :	Q = 5.617502e-07 m3 and P = 5.617502e+02 Pa
	(Pout = 0.000000e+00 Pa,Pc = 0.000000e+00 Pa)
Windkessel 2 :	Q = 4.385531e-07 m3 and P = 6.139743e+02 Pa
	(Pout = 0.000000e+00 Pa,Pc = 0.000000e+00 Pa)
   172  3.0441e-03  1.1690e-04  7.7198e-05  2.3221e-04  1.5283e+03  5.6178e+02  6.1402e+02  1.0560e-03 -5.9321e-04 -4.6311e-04  0:01:38  828

 reversed flow in 49 faces on pressure-outlet 7. 

[...]

 reversed flow in 49 faces on pressure-outlet 7. 
Windkessel 1 :	Q = 5.465100e-07 m3 and P = 5.465100e+00 Pa
	(Pout = 0.000000e+00 Pa,Pc = 0.000000e+00 Pa)
Windkessel 2 :	Q = 4.534909e-07 m3 and P = 6.348873e+00 Pa
	(Pout = 0.000000e+00 Pa,Pc = 0.000000e+00 Pa)
   456  1.7674e-03  8.7088e-05  5.4747e-05  1.1942e-04  9.3070e+02  5.4651e+00  6.3492e+00  1.0560e-03 -5.7711e-04 -4.7889e-04  0:01:05  544

 reversed flow in 49 faces on pressure-outlet 7. 
Windkessel 1 :	Q = 5.465108e-07 m3 and P = 5.465108e+00 Pa
	(Pout = 0.000000e+00 Pa,Pc = 0.000000e+00 Pa)
Windkessel 2 :	Q = 4.534771e-07 m3 and P = 6.348679e+00 Pa
	(Pout = 0.000000e+00 Pa,Pc = 0.000000e+00 Pa)
   457  1.7458e-03  8.7103e-05  5.4321e-05  1.1845e-04  9.3070e+02  5.4651e+00  6.3489e+00  1.0560e-03 -5.7712e-04 -4.7887e-04  0:02:40  543

 reversed flow in 49 faces on pressure-outlet 7. 
Windkessel 1 :	Q = 5.465083e-07 m3 and P = 5.465083e+00 Pa
	(Pout = 0.000000e+00 Pa,Pc = 0.000000e+00 Pa)
Windkessel 2 :	Q = 4.534517e-07 m3 and P = 6.348324e+00 Pa
	(Pout = 0.000000e+00 Pa,Pc = 0.000000e+00 Pa)
   458  1.7202e-03  8.7009e-05  5.3880e-05  1.1665e-04  9.3069e+02  5.4651e+00  6.3487e+00  1.0560e-03 -5.7711e-04 -4.7884e-04  0:02:08  542

 reversed flow in 49 faces on pressure-outlet 7. 
Windkessel 1 :	Q = 5.465095e-07 m3 and P = 5.465095e+00 Pa
	(Pout = 0.000000e+00 Pa,Pc = 0.000000e+00 Pa)
Windkessel 2 :	Q = 4.534306e-07 m3 and P = 6.348029e+00 Pa
	(Pout = 0.000000e+00 Pa,Pc = 0.000000e+00 Pa)
   459  1.6987e-03  8.6332e-05  5.3139e-05  1.1501e-04  9.3070e+02  5.4651e+00  6.3483e+00  1.0560e-03 -5.7711e-04 -4.7882e-04  0:01:42  541

 reversed flow in 49 faces on pressure-outlet 7. 
Windkessel 1 :	Q = 5.465089e-07 m3 and P = 5.465089e+00 Pa
	(Pout = 0.000000e+00 Pa,Pc = 0.000000e+00 Pa)
Windkessel 2 :	Q = 4.534389e-07 m3 and P = 6.348145e+00 Pa
	(Pout = 0.000000e+00 Pa,Pc = 0.000000e+00 Pa)
   460  1.6736e-03  8.5095e-05  5.1855e-05  1.1377e-04  9.3070e+02  5.4651e+00  6.3480e+00  1.0560e-03 -5.7711e-04 -4.7883e-04  0:01:22  540

 reversed flow in 49 faces on pressure-outlet 7. 
Windkessel 1 :	Q = 5.465084e-07 m3 and P = 5.465084e+00 Pa
	(Pout = 0.000000e+00 Pa,Pc = 0.000000e+00 Pa)
Windkessel 2 :	Q = 4.534550e-07 m3 and P = 6.348370e+00 Pa
	(Pout = 0.000000e+00 Pa,Pc = 0.000000e+00 Pa)
   461  1.6530e-03  8.3710e-05  5.0784e-05  1.1331e-04  9.3070e+02  5.4651e+00  6.3481e+00  1.0560e-03 -5.7711e-04 -4.7885e-04  0:01:05  539

 reversed flow in 49 faces on pressure-outlet 7. 
Windkessel 1 :	Q = 5.465092e-07 m3 and P = 5.465092e+00 Pa
	(Pout = 0.000000e+00 Pa,Pc = 0.000000e+00 Pa)
Windkessel 2 :	Q = 4.534504e-07 m3 and P = 6.348305e+00 Pa
	(Pout = 0.000000e+00 Pa,Pc = 0.000000e+00 Pa)
   462  1.6414e-03  8.2316e-05  4.9963e-05  1.1361e-04  9.3070e+02  5.4651e+00  6.3484e+00  1.0560e-03 -5.7711e-04 -4.7884e-04  0:00:52  538

 reversed flow in 49 faces on pressure-outlet 7. 
  iter  continuity  x-velocity  y-velocity  z-velocity  pressure-i  pressure-o  pressure-o  flow-inlet  flow-outle  flow-outle     time/iter
Windkessel 1 :	Q = 5.465075e-07 m3 and P = 5.465075e+00 Pa
	(Pout = 0.000000e+00 Pa,Pc = 0.000000e+00 Pa)
Windkessel 2 :	Q = 4.534471e-07 m3 and P = 6.348260e+00 Pa
	(Pout = 0.000000e+00 Pa,Pc = 0.000000e+00 Pa)
   463  1.6511e-03  8.1259e-05  4.9589e-05  1.1558e-04  9.3071e+02  5.4651e+00  6.3483e+00  1.0560e-03 -5.7711e-04 -4.7884e-04  0:02:29  537

 reversed flow in 49 faces on pressure-outlet 7. 
Windkessel 1 :	Q = 5.465101e-07 m3 and P = 5.465101e+00 Pa
	(Pout = 0.000000e+00 Pa,Pc = 0.000000e+00 Pa)
Windkessel 2 :	Q = 4.534113e-07 m3 and P = 6.347758e+00 Pa
	(Pout = 0.000000e+00 Pa,Pc = 0.000000e+00 Pa)
   464  1.6708e-03  8.0746e-05  4.9531e-05  1.1924e-04  9.3072e+02  5.4651e+00  6.3483e+00  1.0560e-03 -5.7711e-04 -4.7880e-04  0:01:59  536

 reversed flow in 49 faces on pressure-outlet 7. 
Windkessel 1 :	Q = 5.465082e-07 m3 and P = 5.465082e+00 Pa
	(Pout = 0.000000e+00 Pa,Pc = 0.000000e+00 Pa)
Windkessel 2 :	Q = 4.534176e-07 m3 and P = 6.347846e+00 Pa
	(Pout = 0.000000e+00 Pa,Pc = 0.000000e+00 Pa)
   465  1.7064e-03  8.0793e-05  4.9940e-05  1.2345e-04  9.3072e+02  5.4651e+00  6.3478e+00  1.0560e-03 -5.7711e-04 -4.7881e-04  0:01:35  535

 reversed flow in 49 faces on pressure-outlet 7. 
Windkessel 1 :	Q = 5.465088e-07 m3 and P = 5.465088e+00 Pa
	(Pout = 0.000000e+00 Pa,Pc = 0.000000e+00 Pa)
Windkessel 2 :	Q = 4.534427e-07 m3 and P = 6.348197e+00 Pa
	(Pout = 0.000000e+00 Pa,Pc = 0.000000e+00 Pa)
   466  1.7333e-03  8.1028e-05  5.0688e-05  1.2674e-04  9.3072e+02  5.4651e+00  6.3478e+00  1.0560e-03 -5.7711e-04 -4.7884e-04  0:01:16  534

 reversed flow in 49 faces on pressure-outlet 7. 
Windkessel 1 :	Q = 5.465093e-07 m3 and P = 5.465093e+00 Pa
	(Pout = 0.000000e+00 Pa,Pc = 0.000000e+00 Pa)
Windkessel 2 :	Q = 4.534115e-07 m3 and P = 6.347761e+00 Pa
	(Pout = 0.000000e+00 Pa,Pc = 0.000000e+00 Pa)
   467  1.7476e-03  8.1810e-05  5.1796e-05  1.2667e-04  9.3073e+02  5.4651e+00  6.3482e+00  1.0560e-03 -5.7711e-04 -4.7880e-04  0:01:01  533

 reversed flow in 49 faces on pressure-outlet 7. 
Windkessel 1 :	Q = 5.465099e-07 m3 and P = 5.465099e+00 Pa
	(Pout = 0.000000e+00 Pa,Pc = 0.000000e+00 Pa)
Windkessel 2 :	Q = 4.533880e-07 m3 and P = 6.347431e+00 Pa
	(Pout = 0.000000e+00 Pa,Pc = 0.000000e+00 Pa)
   468  1.7366e-03  8.2278e-05  5.2392e-05  1.2588e-04  9.3075e+02  5.4651e+00  6.3478e+00  1.0560e-03 -5.7711e-04 -4.7878e-04  0:02:35  532

 reversed flow in 49 faces on pressure-outlet 7. 
Windkessel 1 :	Q = 5.465121e-07 m3 and P = 5.465121e+00 Pa
	(Pout = 0.000000e+00 Pa,Pc = 0.000000e+00 Pa)
Windkessel 2 :	Q = 4.533992e-07 m3 and P = 6.347588e+00 Pa
	(Pout = 0.000000e+00 Pa,Pc = 0.000000e+00 Pa)
   469  1.7579e-03  8.3684e-05  5.3566e-05  1.2716e-04  9.3077e+02  5.4651e+00  6.3474e+00  1.0560e-03 -5.7712e-04 -4.7879e-04  0:02:04  531

 reversed flow in 49 faces on pressure-outlet 7. 
Windkessel 1 :	Q = 5.465108e-07 m3 and P = 5.465108e+00 Pa
	(Pout = 0.000000e+00 Pa,Pc = 0.000000e+00 Pa)
Windkessel 2 :	Q = 4.534232e-07 m3 and P = 6.347925e+00 Pa
	(Pout = 0.000000e+00 Pa,Pc = 0.000000e+00 Pa)
   470  1.7391e-03  8.4769e-05  5.3997e-05  1.2805e-04  9.3078e+02  5.4651e+00  6.3476e+00  1.0560e-03 -5.7712e-04 -4.7881e-04  0:01:39  530

 reversed flow in 49 faces on pressure-outlet 7. 
Windkessel 1 :	Q = 5.465134e-07 m3 and P = 5.465134e+00 Pa
	(Pout = 0.000000e+00 Pa,Pc = 0.000000e+00 Pa)
Windkessel 2 :	Q = 4.534177e-07 m3 and P = 6.347847e+00 Pa
	(Pout = 0.000000e+00 Pa,Pc = 0.000000e+00 Pa)
   471  1.7609e-03  8.6566e-05  5.4364e-05  1.2826e-04  9.3079e+02  5.4651e+00  6.3479e+00  1.0560e-03 -5.7712e-04 -4.7881e-04  0:01:19  529

 reversed flow in 50 faces on pressure-outlet 7. 
Windkessel 1 :	Q = 5.465133e-07 m3 and P = 5.465133e+00 Pa
	(Pout = 0.000000e+00 Pa,Pc = 0.000000e+00 Pa)
Windkessel 2 :	Q = 4.534377e-07 m3 and P = 6.348128e+00 Pa
	(Pout = 0.000000e+00 Pa,Pc = 0.000000e+00 Pa)
   472  1.7658e-03  8.6561e-05  5.4614e-05  1.3001e-04  9.3080e+02  5.4651e+00  6.3478e+00  1.0560e-03 -5.7712e-04 -4.7883e-04  0:01:03  528

 reversed flow in 50 faces on pressure-outlet 7. 
Windkessel 1 :	Q = 5.465131e-07 m3 and P = 5.465131e+00 Pa
	(Pout = 0.000000e+00 Pa,Pc = 0.000000e+00 Pa)
Windkessel 2 :	Q = 4.534686e-07 m3 and P = 6.348560e+00 Pa
	(Pout = 0.000000e+00 Pa,Pc = 0.000000e+00 Pa)
   473  1.8063e-03  8.7254e-05  5.4910e-05  1.3060e-04  9.3080e+02  5.4651e+00  6.3481e+00  1.0560e-03 -5.7712e-04 -4.7886e-04  0:02:36  527

 reversed flow in 50 faces on pressure-outlet 7. 
  iter  continuity  x-velocity  y-velocity  z-velocity  pressure-i  pressure-o  pressure-o  flow-inlet  flow-outle  flow-outle     time/iter
Windkessel 1 :	Q = 5.465152e-07 m3 and P = 5.465152e+00 Pa
	(Pout = 0.000000e+00 Pa,Pc = 0.000000e+00 Pa)
Windkessel 2 :	Q = 4.534976e-07 m3 and P = 6.348966e+00 Pa
	(Pout = 0.000000e+00 Pa,Pc = 0.000000e+00 Pa)
   474  1.8030e-03  8.6619e-05  5.5921e-05  1.3262e-04  9.3080e+02  5.4651e+00  6.3486e+00  1.0560e-03 -5.7712e-04 -4.7889e-04  0:02:04  526

 reversed flow in 50 faces on pressure-outlet 7. 
Windkessel 1 :	Q = 5.465134e-07 m3 and P = 5.465134e+00 Pa
	(Pout = 0.000000e+00 Pa,Pc = 0.000000e+00 Pa)
Windkessel 2 :	Q = 4.534934e-07 m3 and P = 6.348908e+00 Pa
	(Pout = 0.000000e+00 Pa,Pc = 0.000000e+00 Pa)
   475  1.8188e-03  8.7510e-05  5.5711e-05  1.3181e-04  9.3081e+02  5.4651e+00  6.3490e+00  1.0560e-03 -5.7712e-04 -4.7889e-04  0:01:39  525

 reversed flow in 50 faces on pressure-outlet 7. 
Windkessel 1 :	Q = 5.465167e-07 m3 and P = 5.465167e+00 Pa
	(Pout = 0.000000e+00 Pa,Pc = 0.000000e+00 Pa)
Windkessel 2 :	Q = 4.535211e-07 m3 and P = 6.349295e+00 Pa
	(Pout = 0.000000e+00 Pa,Pc = 0.000000e+00 Pa)
   476  1.8164e-03  8.6560e-05  5.5775e-05  1.3079e-04  9.3081e+02  5.4651e+00  6.3489e+00  1.0560e-03 -5.7712e-04 -4.7892e-04  0:01:19  524

 reversed flow in 50 faces on pressure-outlet 7. 
Windkessel 1 :	Q = 5.465161e-07 m3 and P = 5.465161e+00 Pa
	(Pout = 0.000000e+00 Pa,Pc = 0.000000e+00 Pa)
Windkessel 2 :	Q = 4.535106e-07 m3 and P = 6.349148e+00 Pa
	(Pout = 0.000000e+00 Pa,Pc = 0.000000e+00 Pa)
   477  1.8330e-03  8.6948e-05  5.6064e-05  1.2827e-04  9.3081e+02  5.4651e+00  6.3493e+00  1.0560e-03 -5.7712e-04 -4.7891e-04  0:01:03  523

 reversed flow in 50 faces on pressure-outlet 7. 
Windkessel 1 :	Q = 5.465177e-07 m3 and P = 5.465177e+00 Pa
	(Pout = 0.000000e+00 Pa,Pc = 0.000000e+00 Pa)
Windkessel 2 :	Q = 4.535014e-07 m3 and P = 6.349019e+00 Pa
	(Pout = 0.000000e+00 Pa,Pc = 0.000000e+00 Pa)
   478  1.7990e-03  8.6302e-05  5.6167e-05  1.2806e-04  9.3082e+02  5.4651e+00  6.3491e+00  1.0560e-03 -5.7712e-04 -4.7890e-04  0:00:51  522

 reversed flow in 50 faces on pressure-outlet 7. 
Windkessel 1 :	Q = 5.465200e-07 m3 and P = 5.465200e+00 Pa
	(Pout = 0.000000e+00 Pa,Pc = 0.000000e+00 Pa)
Windkessel 2 :	Q = 4.535119e-07 m3 and P = 6.349166e+00 Pa
	(Pout = 0.000000e+00 Pa,Pc = 0.000000e+00 Pa)
   479  1.8026e-03  8.6212e-05  5.5564e-05  1.2564e-04  9.3082e+02  5.4652e+00  6.3490e+00  1.0560e-03 -5.7713e-04 -4.7891e-04  0:02:25  521

 reversed flow in 50 faces on pressure-outlet 7. 
Windkessel 1 :	Q = 5.465192e-07 m3 and P = 5.465192e+00 Pa
	(Pout = 0.000000e+00 Pa,Pc = 0.000000e+00 Pa)
Windkessel 2 :	Q = 4.535239e-07 m3 and P = 6.349335e+00 Pa
	(Pout = 0.000000e+00 Pa,Pc = 0.000000e+00 Pa)
   480  1.7959e-03  8.5917e-05  5.5395e-05  1.2669e-04  9.3082e+02  5.4652e+00  6.3492e+00  1.0560e-03 -5.7712e-04 -4.7892e-04  0:01:55  520

 reversed flow in 50 faces on pressure-outlet 7. 
Windkessel 1 :	Q = 5.465230e-07 m3 and P = 5.465230e+00 Pa
	(Pout = 0.000000e+00 Pa,Pc = 0.000000e+00 Pa)
Windkessel 2 :	Q = 4.535015e-07 m3 and P = 6.349022e+00 Pa
	(Pout = 0.000000e+00 Pa,Pc = 0.000000e+00 Pa)
   481  1.7872e-03  8.6068e-05  5.5665e-05  1.2485e-04  9.3082e+02  5.4652e+00  6.3493e+00  1.0560e-03 -5.7713e-04 -4.7890e-04  0:01:32  519

 reversed flow in 50 faces on pressure-outlet 7. 
Windkessel 1 :	Q = 5.465218e-07 m3 and P = 5.465218e+00 Pa
	(Pout = 0.000000e+00 Pa,Pc = 0.000000e+00 Pa)
Windkessel 2 :	Q = 4.534749e-07 m3 and P = 6.348648e+00 Pa
	(Pout = 0.000000e+00 Pa,Pc = 0.000000e+00 Pa)
   482  1.7508e-03  8.6007e-05  5.6176e-05  1.2505e-04  9.3082e+02  5.4652e+00  6.3490e+00  1.0560e-03 -5.7713e-04 -4.7887e-04  0:01:14  518

 reversed flow in 50 faces on pressure-outlet 7. 
Windkessel 1 :	Q = 5.465246e-07 m3 and P = 5.465246e+00 Pa
	(Pout = 0.000000e+00 Pa,Pc = 0.000000e+00 Pa)
Windkessel 2 :	Q = 4.534462e-07 m3 and P = 6.348247e+00 Pa
	(Pout = 0.000000e+00 Pa,Pc = 0.000000e+00 Pa)
   483  1.7451e-03  8.6321e-05  5.6137e-05  1.2242e-04  9.3083e+02  5.4652e+00  6.3486e+00  1.0560e-03 -5.7713e-04 -4.7884e-04  0:00:59  517

 reversed flow in 50 faces on pressure-outlet 7. 
Windkessel 1 :	Q = 5.465252e-07 m3 and P = 5.465252e+00 Pa
	(Pout = 0.000000e+00 Pa,Pc = 0.000000e+00 Pa)
Windkessel 2 :	Q = 4.534512e-07 m3 and P = 6.348317e+00 Pa
	(Pout = 0.000000e+00 Pa,Pc = 0.000000e+00 Pa)
   484  1.7366e-03  8.6701e-05  5.5870e-05  1.2208e-04  9.3083e+02  5.4652e+00  6.3482e+00  1.0560e-03 -5.7713e-04 -4.7884e-04  0:00:47  516

 reversed flow in 50 faces on pressure-outlet 7. 
  iter  continuity  x-velocity  y-velocity  z-velocity  pressure-i  pressure-o  pressure-o  flow-inlet  flow-outle  flow-outle     time/iter
Windkessel 1 :	Q = 5.465248e-07 m3 and P = 5.465248e+00 Pa
	(Pout = 0.000000e+00 Pa,Pc = 0.000000e+00 Pa)
Windkessel 2 :	Q = 4.534692e-07 m3 and P = 6.348569e+00 Pa
	(Pout = 0.000000e+00 Pa,Pc = 0.000000e+00 Pa)
   485  1.7347e-03  8.7029e-05  5.5403e-05  1.2099e-04  9.3083e+02  5.4652e+00  6.3483e+00  1.0560e-03 -5.7713e-04 -4.7886e-04  0:02:20  515

 reversed flow in 50 faces on pressure-outlet 7. 
Windkessel 1 :	Q = 5.465277e-07 m3 and P = 5.465277e+00 Pa
	(Pout = 0.000000e+00 Pa,Pc = 0.000000e+00 Pa)
Windkessel 2 :	Q = 4.534869e-07 m3 and P = 6.348817e+00 Pa
	(Pout = 0.000000e+00 Pa,Pc = 0.000000e+00 Pa)
   486  1.7254e-03  8.7334e-05  5.4619e-05  1.2064e-04  9.3083e+02  5.4652e+00  6.3486e+00  1.0560e-03 -5.7713e-04 -4.7888e-04  0:01:52  514

 reversed flow in 50 faces on pressure-outlet 7. 
Windkessel 1 :	Q = 5.465249e-07 m3 and P = 5.465249e+00 Pa
	(Pout = 0.000000e+00 Pa,Pc = 0.000000e+00 Pa)
Windkessel 2 :	Q = 4.534942e-07 m3 and P = 6.348918e+00 Pa
	(Pout = 0.000000e+00 Pa,Pc = 0.000000e+00 Pa)
   487  1.7194e-03  8.6673e-05  5.4164e-05  1.1938e-04  9.3082e+02  5.4653e+00  6.3488e+00  1.0560e-03 -5.7713e-04 -4.7889e-04  0:01:30  513

 reversed flow in 50 faces on pressure-outlet 7. 
Windkessel 1 :	Q = 5.465278e-07 m3 and P = 5.465278e+00 Pa
	(Pout = 0.000000e+00 Pa,Pc = 0.000000e+00 Pa)
Windkessel 2 :	Q = 4.535077e-07 m3 and P = 6.349108e+00 Pa
	(Pout = 0.000000e+00 Pa,Pc = 0.000000e+00 Pa)
   488  1.7022e-03  8.6123e-05  5.3888e-05  1.1818e-04  9.3082e+02  5.4652e+00  6.3489e+00  1.0560e-03 -5.7713e-04 -4.7890e-04  0:01:11  512

 reversed flow in 50 faces on pressure-outlet 7. 
Windkessel 1 :	Q = 5.465266e-07 m3 and P = 5.465266e+00 Pa
	(Pout = 0.000000e+00 Pa,Pc = 0.000000e+00 Pa)
Windkessel 2 :	Q = 4.534953e-07 m3 and P = 6.348934e+00 Pa
	(Pout = 0.000000e+00 Pa,Pc = 0.000000e+00 Pa)
   489  1.6850e-03  8.5300e-05  5.3475e-05  1.1716e-04  9.3081e+02  5.4653e+00  6.3491e+00  1.0560e-03 -5.7713e-04 -4.7889e-04  0:00:57  511

 reversed flow in 50 faces on pressure-outlet 7. 
Windkessel 1 :	Q = 5.465263e-07 m3 and P = 5.465263e+00 Pa
	(Pout = 0.000000e+00 Pa,Pc = 0.000000e+00 Pa)
Windkessel 2 :	Q = 4.535216e-07 m3 and P = 6.349302e+00 Pa
	(Pout = 0.000000e+00 Pa,Pc = 0.000000e+00 Pa)
   490  1.6787e-03  8.4599e-05  5.3240e-05  1.1594e-04  9.3081e+02  5.4653e+00  6.3489e+00  1.0560e-03 -5.7713e-04 -4.7892e-04  0:02:28  510

 reversed flow in 50 faces on pressure-outlet 7. 
Windkessel 1 :	Q = 5.465274e-07 m3 and P = 5.465274e+00 Pa
	(Pout = 0.000000e+00 Pa,Pc = 0.000000e+00 Pa)
Windkessel 2 :	Q = 4.535462e-07 m3 and P = 6.349646e+00 Pa
	(Pout = 0.000000e+00 Pa,Pc = 0.000000e+00 Pa)
   491  1.6626e-03  8.4321e-05  5.2710e-05  1.1484e-04  9.3079e+02  5.4652e+00  6.3493e+00  1.0560e-03 -5.7713e-04 -4.7894e-04  0:01:58  509

 reversed flow in 50 faces on pressure-outlet 7. 
Windkessel 1 :	Q = 5.465236e-07 m3 and P = 5.465236e+00 Pa
	(Pout = 0.000000e+00 Pa,Pc = 0.000000e+00 Pa)
Windkessel 2 :	Q = 4.535388e-07 m3 and P = 6.349543e+00 Pa
	(Pout = 0.000000e+00 Pa,Pc = 0.000000e+00 Pa)
   492  1.6615e-03  8.3538e-05  5.2116e-05  1.1392e-04  9.3078e+02  5.4653e+00  6.3496e+00  1.0560e-03 -5.7713e-04 -4.7894e-04  0:01:34  508

 reversed flow in 50 faces on pressure-outlet 7. 
Windkessel 1 :	Q = 5.465264e-07 m3 and P = 5.465264e+00 Pa
	(Pout = 0.000000e+00 Pa,Pc = 0.000000e+00 Pa)
Windkessel 2 :	Q = 4.535351e-07 m3 and P = 6.349491e+00 Pa
	(Pout = 0.000000e+00 Pa,Pc = 0.000000e+00 Pa)
   493  1.6502e-03  8.2090e-05  5.1790e-05  1.1391e-04  9.3076e+02  5.4652e+00  6.3495e+00  1.0560e-03 -5.7713e-04 -4.7893e-04  0:01:15  507

 reversed flow in 50 faces on pressure-outlet 7. 
Windkessel 1 :	Q = 5.465218e-07 m3 and P = 5.465218e+00 Pa
	(Pout = 0.000000e+00 Pa,Pc = 0.000000e+00 Pa)
Windkessel 2 :	Q = 4.535347e-07 m3 and P = 6.349486e+00 Pa
	(Pout = 0.000000e+00 Pa,Pc = 0.000000e+00 Pa)
   494  1.6372e-03  8.1221e-05  5.1715e-05  1.1301e-04  9.3075e+02  5.4652e+00  6.3495e+00  1.0560e-03 -5.7713e-04 -4.7893e-04  0:01:00  506

 reversed flow in 50 faces on pressure-outlet 7. 
Windkessel 1 :	Q = 5.465227e-07 m3 and P = 5.465227e+00 Pa
	(Pout = 0.000000e+00 Pa,Pc = 0.000000e+00 Pa)
Windkessel 2 :	Q = 4.535393e-07 m3 and P = 6.349550e+00 Pa
	(Pout = 0.000000e+00 Pa,Pc = 0.000000e+00 Pa)
   495  1.6264e-03  8.0455e-05  5.1518e-05  1.1317e-04  9.3075e+02  5.4652e+00  6.3495e+00  1.0560e-03 -5.7713e-04 -4.7894e-04  0:02:29  505

 reversed flow in 50 faces on pressure-outlet 7. 
  iter  continuity  x-velocity  y-velocity  z-velocity  pressure-i  pressure-o  pressure-o  flow-inlet  flow-outle  flow-outle     time/iter
Windkessel 1 :	Q = 5.465220e-07 m3 and P = 5.465220e+00 Pa
	(Pout = 0.000000e+00 Pa,Pc = 0.000000e+00 Pa)
Windkessel 2 :	Q = 4.535319e-07 m3 and P = 6.349447e+00 Pa
	(Pout = 0.000000e+00 Pa,Pc = 0.000000e+00 Pa)
   496  1.6187e-03  8.0324e-05  5.1682e-05  1.1335e-04  9.3074e+02  5.4652e+00  6.3495e+00  1.0560e-03 -5.7713e-04 -4.7893e-04  0:01:59  504

 reversed flow in 50 faces on pressure-outlet 7. 
Windkessel 1 :	Q = 5.465171e-07 m3 and P = 5.465171e+00 Pa
	(Pout = 0.000000e+00 Pa,Pc = 0.000000e+00 Pa)
Windkessel 2 :	Q = 4.535351e-07 m3 and P = 6.349492e+00 Pa
	(Pout = 0.000000e+00 Pa,Pc = 0.000000e+00 Pa)
   497  1.6264e-03  8.0675e-05  5.1895e-05  1.1397e-04  9.3073e+02  5.4652e+00  6.3494e+00  1.0560e-03 -5.7712e-04 -4.7893e-04  0:01:35  503

 reversed flow in 50 faces on pressure-outlet 7. 
Windkessel 1 :	Q = 5.465215e-07 m3 and P = 5.465215e+00 Pa
	(Pout = 0.000000e+00 Pa,Pc = 0.000000e+00 Pa)
Windkessel 2 :	Q = 4.535326e-07 m3 and P = 6.349457e+00 Pa
	(Pout = 0.000000e+00 Pa,Pc = 0.000000e+00 Pa)
   498  1.6273e-03  8.1475e-05  5.2055e-05  1.1535e-04  9.3073e+02  5.4652e+00  6.3495e+00  1.0560e-03 -5.7713e-04 -4.7893e-04  0:01:16  502

 reversed flow in 50 faces on pressure-outlet 7. 
Windkessel 1 :	Q = 5.465156e-07 m3 and P = 5.465156e+00 Pa
	(Pout = 0.000000e+00 Pa,Pc = 0.000000e+00 Pa)
Windkessel 2 :	Q = 4.535425e-07 m3 and P = 6.349595e+00 Pa
	(Pout = 0.000000e+00 Pa,Pc = 0.000000e+00 Pa)
   499  1.6252e-03  8.2106e-05  5.2263e-05  1.1613e-04  9.3072e+02  5.4652e+00  6.3495e+00  1.0560e-03 -5.7712e-04 -4.7894e-04  0:01:00  501

 reversed flow in 50 faces on pressure-outlet 7. 
Windkessel 1 :	Q = 5.465188e-07 m3 and P = 5.465188e+00 Pa
	(Pout = 0.000000e+00 Pa,Pc = 0.000000e+00 Pa)
Windkessel 2 :	Q = 4.535293e-07 m3 and P = 6.349411e+00 Pa
	(Pout = 0.000000e+00 Pa,Pc = 0.000000e+00 Pa)
   500  1.6255e-03  8.3657e-05  5.2166e-05  1.1647e-04  9.3072e+02  5.4651e+00  6.3496e+00  1.0560e-03 -5.7712e-04 -4.7893e-04  0:00:48  500

 reversed flow in 50 faces on pressure-outlet 7. 
Windkessel 1 :	Q = 5.465172e-07 m3 and P = 5.465172e+00 Pa
	(Pout = 0.000000e+00 Pa,Pc = 0.000000e+00 Pa)
Windkessel 2 :	Q = 4.535079e-07 m3 and P = 6.349111e+00 Pa
	(Pout = 0.000000e+00 Pa,Pc = 0.000000e+00 Pa)
   501  1.6205e-03  8.3278e-05  5.2313e-05  1.1705e-04  9.3072e+02  5.4652e+00  6.3494e+00  1.0560e-03 -5.7712e-04 -4.7890e-04  0:02:18  499

 reversed flow in 50 faces on pressure-outlet 7. 
Windkessel 1 :	Q = 5.465145e-07 m3 and P = 5.465145e+00 Pa
	(Pout = 0.000000e+00 Pa,Pc = 0.000000e+00 Pa)
Windkessel 2 :	Q = 4.535129e-07 m3 and P = 6.349181e+00 Pa
	(Pout = 0.000000e+00 Pa,Pc = 0.000000e+00 Pa)
   502  1.6195e-03  8.3521e-05  5.2493e-05  1.1827e-04  9.3072e+02  5.4652e+00  6.3491e+00  1.0560e-03 -5.7712e-04 -4.7891e-04  0:01:50  498
Done.
(cx-gui-do cx-activate-item "MenuBar*WriteSubMenu*Stop Transcript")
